
---------- Begin Simulation Statistics ----------
simSeconds                                   0.000027                       # Number of seconds simulated (Second)
simTicks                                     26896686                       # Number of ticks simulated (Tick)
finalTick                                    26896686                       # Number of ticks from beginning of simulation (restored from checkpoints and never reset) (Tick)
simFreq                                  1000000000000                       # The number of ticks per simulated second ((Tick/Second))
hostSeconds                                      0.03                       # Real time elapsed on the host (Second)
hostTickRate                                775346781                       # The number of ticks simulated per host second (ticks/s) ((Tick/Second))
hostMemory                                     199660                       # Number of bytes of host memory used (Byte)
simInsts                                         6539                       # Number of instructions simulated (Count)
simOps                                          12930                       # Number of ops (including micro ops) simulated (Count)
hostInstRate                                   187963                       # Simulator instruction rate (inst/s) ((Count/Second))
hostOpRate                                     371600                       # Simulator op (including micro ops) rate (op/s) ((Count/Second))
system.cache_hierarchy.dptw_caches.blockedCycles::no_mshrs            0                       # number of cycles access was blocked (Cycle)
system.cache_hierarchy.dptw_caches.blockedCycles::no_targets            0                       # number of cycles access was blocked (Cycle)
system.cache_hierarchy.dptw_caches.blockedCauses::no_mshrs            0                       # number of times access was blocked (Count)
system.cache_hierarchy.dptw_caches.blockedCauses::no_targets            0                       # number of times access was blocked (Count)
system.cache_hierarchy.dptw_caches.avgBlocked::no_mshrs          nan                       # average number of cycles each access was blocked ((Cycle/Count))
system.cache_hierarchy.dptw_caches.avgBlocked::no_targets          nan                       # average number of cycles each access was blocked ((Cycle/Count))
system.cache_hierarchy.dptw_caches.replacements            0                       # number of replacements (Count)
system.cache_hierarchy.dptw_caches.power_state.pwrStateResidencyTicks::UNDEFINED     26896686                       # Cumulative time (in ticks) in various power states (Tick)
system.cache_hierarchy.dptw_caches.tags.tagsInUse            0                       # Average ticks per tags in use ((Tick/Count))
system.cache_hierarchy.dptw_caches.tags.totalRefs            0                       # Total number of references to valid blocks. (Count)
system.cache_hierarchy.dptw_caches.tags.sampledRefs            0                       # Sample count of references to valid blocks. (Count)
system.cache_hierarchy.dptw_caches.tags.avgRefs          nan                       # Average number of references to valid blocks. ((Count/Count))
system.cache_hierarchy.dptw_caches.tags.warmupTick            0                       # The tick when the warmup percentage was hit. (Tick)
system.cache_hierarchy.dptw_caches.tags.tagAccesses            0                       # Number of tag accesses (Count)
system.cache_hierarchy.dptw_caches.tags.dataAccesses            0                       # Number of data accesses (Count)
system.cache_hierarchy.dptw_caches.tags.power_state.pwrStateResidencyTicks::UNDEFINED     26896686                       # Cumulative time (in ticks) in various power states (Tick)
system.cache_hierarchy.iptw_caches.blockedCycles::no_mshrs            0                       # number of cycles access was blocked (Cycle)
system.cache_hierarchy.iptw_caches.blockedCycles::no_targets            0                       # number of cycles access was blocked (Cycle)
system.cache_hierarchy.iptw_caches.blockedCauses::no_mshrs            0                       # number of times access was blocked (Count)
system.cache_hierarchy.iptw_caches.blockedCauses::no_targets            0                       # number of times access was blocked (Count)
system.cache_hierarchy.iptw_caches.avgBlocked::no_mshrs          nan                       # average number of cycles each access was blocked ((Cycle/Count))
system.cache_hierarchy.iptw_caches.avgBlocked::no_targets          nan                       # average number of cycles each access was blocked ((Cycle/Count))
system.cache_hierarchy.iptw_caches.replacements            0                       # number of replacements (Count)
system.cache_hierarchy.iptw_caches.power_state.pwrStateResidencyTicks::UNDEFINED     26896686                       # Cumulative time (in ticks) in various power states (Tick)
system.cache_hierarchy.iptw_caches.tags.tagsInUse            0                       # Average ticks per tags in use ((Tick/Count))
system.cache_hierarchy.iptw_caches.tags.totalRefs            0                       # Total number of references to valid blocks. (Count)
system.cache_hierarchy.iptw_caches.tags.sampledRefs            0                       # Sample count of references to valid blocks. (Count)
system.cache_hierarchy.iptw_caches.tags.avgRefs          nan                       # Average number of references to valid blocks. ((Count/Count))
system.cache_hierarchy.iptw_caches.tags.warmupTick            0                       # The tick when the warmup percentage was hit. (Tick)
system.cache_hierarchy.iptw_caches.tags.tagAccesses            0                       # Number of tag accesses (Count)
system.cache_hierarchy.iptw_caches.tags.dataAccesses            0                       # Number of data accesses (Count)
system.cache_hierarchy.iptw_caches.tags.power_state.pwrStateResidencyTicks::UNDEFINED     26896686                       # Cumulative time (in ticks) in various power states (Tick)
system.cache_hierarchy.l1dcaches.demandHits::processor.cores.core.data         2466                       # number of demand (read+write) hits (Count)
system.cache_hierarchy.l1dcaches.demandHits::total         2466                       # number of demand (read+write) hits (Count)
system.cache_hierarchy.l1dcaches.overallHits::processor.cores.core.data         2466                       # number of overall hits (Count)
system.cache_hierarchy.l1dcaches.overallHits::total         2466                       # number of overall hits (Count)
system.cache_hierarchy.l1dcaches.demandMisses::processor.cores.core.data          156                       # number of demand (read+write) misses (Count)
system.cache_hierarchy.l1dcaches.demandMisses::total          156                       # number of demand (read+write) misses (Count)
system.cache_hierarchy.l1dcaches.overallMisses::processor.cores.core.data          156                       # number of overall misses (Count)
system.cache_hierarchy.l1dcaches.overallMisses::total          156                       # number of overall misses (Count)
system.cache_hierarchy.l1dcaches.demandMissLatency::processor.cores.core.data      7396931                       # number of demand (read+write) miss ticks (Tick)
system.cache_hierarchy.l1dcaches.demandMissLatency::total      7396931                       # number of demand (read+write) miss ticks (Tick)
system.cache_hierarchy.l1dcaches.overallMissLatency::processor.cores.core.data      7396931                       # number of overall miss ticks (Tick)
system.cache_hierarchy.l1dcaches.overallMissLatency::total      7396931                       # number of overall miss ticks (Tick)
system.cache_hierarchy.l1dcaches.demandAccesses::processor.cores.core.data         2622                       # number of demand (read+write) accesses (Count)
system.cache_hierarchy.l1dcaches.demandAccesses::total         2622                       # number of demand (read+write) accesses (Count)
system.cache_hierarchy.l1dcaches.overallAccesses::processor.cores.core.data         2622                       # number of overall (read+write) accesses (Count)
system.cache_hierarchy.l1dcaches.overallAccesses::total         2622                       # number of overall (read+write) accesses (Count)
system.cache_hierarchy.l1dcaches.demandMissRate::processor.cores.core.data     0.059497                       # miss rate for demand accesses (Ratio)
system.cache_hierarchy.l1dcaches.demandMissRate::total     0.059497                       # miss rate for demand accesses (Ratio)
system.cache_hierarchy.l1dcaches.overallMissRate::processor.cores.core.data     0.059497                       # miss rate for overall accesses (Ratio)
system.cache_hierarchy.l1dcaches.overallMissRate::total     0.059497                       # miss rate for overall accesses (Ratio)
system.cache_hierarchy.l1dcaches.demandAvgMissLatency::processor.cores.core.data 47416.224359                       # average overall miss latency in ticks ((Tick/Count))
system.cache_hierarchy.l1dcaches.demandAvgMissLatency::total 47416.224359                       # average overall miss latency in ticks ((Tick/Count))
system.cache_hierarchy.l1dcaches.overallAvgMissLatency::processor.cores.core.data 47416.224359                       # average overall miss latency ((Tick/Count))
system.cache_hierarchy.l1dcaches.overallAvgMissLatency::total 47416.224359                       # average overall miss latency ((Tick/Count))
system.cache_hierarchy.l1dcaches.blockedCycles::no_mshrs            0                       # number of cycles access was blocked (Cycle)
system.cache_hierarchy.l1dcaches.blockedCycles::no_targets            0                       # number of cycles access was blocked (Cycle)
system.cache_hierarchy.l1dcaches.blockedCauses::no_mshrs            0                       # number of times access was blocked (Count)
system.cache_hierarchy.l1dcaches.blockedCauses::no_targets            0                       # number of times access was blocked (Count)
system.cache_hierarchy.l1dcaches.avgBlocked::no_mshrs          nan                       # average number of cycles each access was blocked ((Cycle/Count))
system.cache_hierarchy.l1dcaches.avgBlocked::no_targets          nan                       # average number of cycles each access was blocked ((Cycle/Count))
system.cache_hierarchy.l1dcaches.demandMshrHits::processor.cores.core.data            6                       # number of demand (read+write) MSHR hits (Count)
system.cache_hierarchy.l1dcaches.demandMshrHits::total            6                       # number of demand (read+write) MSHR hits (Count)
system.cache_hierarchy.l1dcaches.overallMshrHits::processor.cores.core.data            6                       # number of overall MSHR hits (Count)
system.cache_hierarchy.l1dcaches.overallMshrHits::total            6                       # number of overall MSHR hits (Count)
system.cache_hierarchy.l1dcaches.demandMshrMisses::processor.cores.core.data          150                       # number of demand (read+write) MSHR misses (Count)
system.cache_hierarchy.l1dcaches.demandMshrMisses::total          150                       # number of demand (read+write) MSHR misses (Count)
system.cache_hierarchy.l1dcaches.overallMshrMisses::cache_hierarchy.l1dcaches.prefetcher           35                       # number of overall MSHR misses (Count)
system.cache_hierarchy.l1dcaches.overallMshrMisses::processor.cores.core.data          150                       # number of overall MSHR misses (Count)
system.cache_hierarchy.l1dcaches.overallMshrMisses::total          185                       # number of overall MSHR misses (Count)
system.cache_hierarchy.l1dcaches.demandMshrMissLatency::processor.cores.core.data      7096331                       # number of demand (read+write) MSHR miss ticks (Tick)
system.cache_hierarchy.l1dcaches.demandMshrMissLatency::total      7096331                       # number of demand (read+write) MSHR miss ticks (Tick)
system.cache_hierarchy.l1dcaches.overallMshrMissLatency::cache_hierarchy.l1dcaches.prefetcher      2234584                       # number of overall MSHR miss ticks (Tick)
system.cache_hierarchy.l1dcaches.overallMshrMissLatency::processor.cores.core.data      7096331                       # number of overall MSHR miss ticks (Tick)
system.cache_hierarchy.l1dcaches.overallMshrMissLatency::total      9330915                       # number of overall MSHR miss ticks (Tick)
system.cache_hierarchy.l1dcaches.demandMshrMissRate::processor.cores.core.data     0.057208                       # mshr miss ratio for demand accesses (Ratio)
system.cache_hierarchy.l1dcaches.demandMshrMissRate::total     0.057208                       # mshr miss ratio for demand accesses (Ratio)
system.cache_hierarchy.l1dcaches.overallMshrMissRate::cache_hierarchy.l1dcaches.prefetcher          inf                       # mshr miss ratio for overall accesses (Ratio)
system.cache_hierarchy.l1dcaches.overallMshrMissRate::processor.cores.core.data     0.057208                       # mshr miss ratio for overall accesses (Ratio)
system.cache_hierarchy.l1dcaches.overallMshrMissRate::total     0.070557                       # mshr miss ratio for overall accesses (Ratio)
system.cache_hierarchy.l1dcaches.demandAvgMshrMissLatency::processor.cores.core.data 47308.873333                       # average overall mshr miss latency ((Tick/Count))
system.cache_hierarchy.l1dcaches.demandAvgMshrMissLatency::total 47308.873333                       # average overall mshr miss latency ((Tick/Count))
system.cache_hierarchy.l1dcaches.overallAvgMshrMissLatency::cache_hierarchy.l1dcaches.prefetcher 63845.257143                       # average overall mshr miss latency ((Tick/Count))
system.cache_hierarchy.l1dcaches.overallAvgMshrMissLatency::processor.cores.core.data 47308.873333                       # average overall mshr miss latency ((Tick/Count))
system.cache_hierarchy.l1dcaches.overallAvgMshrMissLatency::total 50437.378378                       # average overall mshr miss latency ((Tick/Count))
system.cache_hierarchy.l1dcaches.replacements            0                       # number of replacements (Count)
system.cache_hierarchy.l1dcaches.HardPFReq.mshrMisses::cache_hierarchy.l1dcaches.prefetcher           35                       # number of HardPFReq MSHR misses (Count)
system.cache_hierarchy.l1dcaches.HardPFReq.mshrMisses::total           35                       # number of HardPFReq MSHR misses (Count)
system.cache_hierarchy.l1dcaches.HardPFReq.mshrMissLatency::cache_hierarchy.l1dcaches.prefetcher      2234584                       # number of HardPFReq MSHR miss ticks (Tick)
system.cache_hierarchy.l1dcaches.HardPFReq.mshrMissLatency::total      2234584                       # number of HardPFReq MSHR miss ticks (Tick)
system.cache_hierarchy.l1dcaches.HardPFReq.mshrMissRate::cache_hierarchy.l1dcaches.prefetcher          inf                       # mshr miss rate for HardPFReq accesses (Ratio)
system.cache_hierarchy.l1dcaches.HardPFReq.mshrMissRate::total          inf                       # mshr miss rate for HardPFReq accesses (Ratio)
system.cache_hierarchy.l1dcaches.HardPFReq.avgMshrMissLatency::cache_hierarchy.l1dcaches.prefetcher 63845.257143                       # average HardPFReq mshr miss latency ((Tick/Count))
system.cache_hierarchy.l1dcaches.HardPFReq.avgMshrMissLatency::total 63845.257143                       # average HardPFReq mshr miss latency ((Tick/Count))
system.cache_hierarchy.l1dcaches.ReadReq.hits::processor.cores.core.data         1192                       # number of ReadReq hits (Count)
system.cache_hierarchy.l1dcaches.ReadReq.hits::total         1192                       # number of ReadReq hits (Count)
system.cache_hierarchy.l1dcaches.ReadReq.misses::processor.cores.core.data           80                       # number of ReadReq misses (Count)
system.cache_hierarchy.l1dcaches.ReadReq.misses::total           80                       # number of ReadReq misses (Count)
system.cache_hierarchy.l1dcaches.ReadReq.missLatency::processor.cores.core.data      4035555                       # number of ReadReq miss ticks (Tick)
system.cache_hierarchy.l1dcaches.ReadReq.missLatency::total      4035555                       # number of ReadReq miss ticks (Tick)
system.cache_hierarchy.l1dcaches.ReadReq.accesses::processor.cores.core.data         1272                       # number of ReadReq accesses(hits+misses) (Count)
system.cache_hierarchy.l1dcaches.ReadReq.accesses::total         1272                       # number of ReadReq accesses(hits+misses) (Count)
system.cache_hierarchy.l1dcaches.ReadReq.missRate::processor.cores.core.data     0.062893                       # miss rate for ReadReq accesses (Ratio)
system.cache_hierarchy.l1dcaches.ReadReq.missRate::total     0.062893                       # miss rate for ReadReq accesses (Ratio)
system.cache_hierarchy.l1dcaches.ReadReq.avgMissLatency::processor.cores.core.data 50444.437500                       # average ReadReq miss latency ((Tick/Count))
system.cache_hierarchy.l1dcaches.ReadReq.avgMissLatency::total 50444.437500                       # average ReadReq miss latency ((Tick/Count))
system.cache_hierarchy.l1dcaches.ReadReq.mshrMisses::processor.cores.core.data           80                       # number of ReadReq MSHR misses (Count)
system.cache_hierarchy.l1dcaches.ReadReq.mshrMisses::total           80                       # number of ReadReq MSHR misses (Count)
system.cache_hierarchy.l1dcaches.ReadReq.mshrMissLatency::processor.cores.core.data      4022195                       # number of ReadReq MSHR miss ticks (Tick)
system.cache_hierarchy.l1dcaches.ReadReq.mshrMissLatency::total      4022195                       # number of ReadReq MSHR miss ticks (Tick)
system.cache_hierarchy.l1dcaches.ReadReq.mshrMissRate::processor.cores.core.data     0.062893                       # mshr miss rate for ReadReq accesses (Ratio)
system.cache_hierarchy.l1dcaches.ReadReq.mshrMissRate::total     0.062893                       # mshr miss rate for ReadReq accesses (Ratio)
system.cache_hierarchy.l1dcaches.ReadReq.avgMshrMissLatency::processor.cores.core.data 50277.437500                       # average ReadReq mshr miss latency ((Tick/Count))
system.cache_hierarchy.l1dcaches.ReadReq.avgMshrMissLatency::total 50277.437500                       # average ReadReq mshr miss latency ((Tick/Count))
system.cache_hierarchy.l1dcaches.WriteReq.hits::processor.cores.core.data         1274                       # number of WriteReq hits (Count)
system.cache_hierarchy.l1dcaches.WriteReq.hits::total         1274                       # number of WriteReq hits (Count)
system.cache_hierarchy.l1dcaches.WriteReq.misses::processor.cores.core.data           76                       # number of WriteReq misses (Count)
system.cache_hierarchy.l1dcaches.WriteReq.misses::total           76                       # number of WriteReq misses (Count)
system.cache_hierarchy.l1dcaches.WriteReq.missLatency::processor.cores.core.data      3361376                       # number of WriteReq miss ticks (Tick)
system.cache_hierarchy.l1dcaches.WriteReq.missLatency::total      3361376                       # number of WriteReq miss ticks (Tick)
system.cache_hierarchy.l1dcaches.WriteReq.accesses::processor.cores.core.data         1350                       # number of WriteReq accesses(hits+misses) (Count)
system.cache_hierarchy.l1dcaches.WriteReq.accesses::total         1350                       # number of WriteReq accesses(hits+misses) (Count)
system.cache_hierarchy.l1dcaches.WriteReq.missRate::processor.cores.core.data     0.056296                       # miss rate for WriteReq accesses (Ratio)
system.cache_hierarchy.l1dcaches.WriteReq.missRate::total     0.056296                       # miss rate for WriteReq accesses (Ratio)
system.cache_hierarchy.l1dcaches.WriteReq.avgMissLatency::processor.cores.core.data 44228.631579                       # average WriteReq miss latency ((Tick/Count))
system.cache_hierarchy.l1dcaches.WriteReq.avgMissLatency::total 44228.631579                       # average WriteReq miss latency ((Tick/Count))
system.cache_hierarchy.l1dcaches.WriteReq.mshrHits::processor.cores.core.data            6                       # number of WriteReq MSHR hits (Count)
system.cache_hierarchy.l1dcaches.WriteReq.mshrHits::total            6                       # number of WriteReq MSHR hits (Count)
system.cache_hierarchy.l1dcaches.WriteReq.mshrMisses::processor.cores.core.data           70                       # number of WriteReq MSHR misses (Count)
system.cache_hierarchy.l1dcaches.WriteReq.mshrMisses::total           70                       # number of WriteReq MSHR misses (Count)
system.cache_hierarchy.l1dcaches.WriteReq.mshrMissLatency::processor.cores.core.data      3074136                       # number of WriteReq MSHR miss ticks (Tick)
system.cache_hierarchy.l1dcaches.WriteReq.mshrMissLatency::total      3074136                       # number of WriteReq MSHR miss ticks (Tick)
system.cache_hierarchy.l1dcaches.WriteReq.mshrMissRate::processor.cores.core.data     0.051852                       # mshr miss rate for WriteReq accesses (Ratio)
system.cache_hierarchy.l1dcaches.WriteReq.mshrMissRate::total     0.051852                       # mshr miss rate for WriteReq accesses (Ratio)
system.cache_hierarchy.l1dcaches.WriteReq.avgMshrMissLatency::processor.cores.core.data 43916.228571                       # average WriteReq mshr miss latency ((Tick/Count))
system.cache_hierarchy.l1dcaches.WriteReq.avgMshrMissLatency::total 43916.228571                       # average WriteReq mshr miss latency ((Tick/Count))
system.cache_hierarchy.l1dcaches.power_state.pwrStateResidencyTicks::UNDEFINED     26896686                       # Cumulative time (in ticks) in various power states (Tick)
system.cache_hierarchy.l1dcaches.prefetcher.demandMshrMisses          150                       # demands not covered by prefetchs (Count)
system.cache_hierarchy.l1dcaches.prefetcher.pfIssued           52                       # number of hwpf issued (Count)
system.cache_hierarchy.l1dcaches.prefetcher.pfUseful           28                       # number of useful prefetch (Count)
system.cache_hierarchy.l1dcaches.prefetcher.pfUsefulButMiss            0                       # number of hit on prefetch but cache block is not in an usable state (Count)
system.cache_hierarchy.l1dcaches.prefetcher.accuracy     0.538462                       # accuracy of the prefetcher (Count)
system.cache_hierarchy.l1dcaches.prefetcher.coverage     0.157303                       # coverage brought by this prefetcher (Count)
system.cache_hierarchy.l1dcaches.prefetcher.pfHitInCache           11                       # number of prefetches hitting in cache (Count)
system.cache_hierarchy.l1dcaches.prefetcher.pfHitInMSHR            6                       # number of prefetches hitting in a MSHR (Count)
system.cache_hierarchy.l1dcaches.prefetcher.pfHitInWB            0                       # number of prefetches hit in the Write Buffer (Count)
system.cache_hierarchy.l1dcaches.prefetcher.pfLate           17                       # number of late prefetches (hitting in cache, MSHR or WB) (Count)
system.cache_hierarchy.l1dcaches.prefetcher.pfIdentified           52                       # number of prefetch candidates identified (Count)
system.cache_hierarchy.l1dcaches.prefetcher.pfBufferHit            0                       # number of redundant prefetches already in prefetch queue (Count)
system.cache_hierarchy.l1dcaches.prefetcher.pfInCache            0                       # number of redundant prefetches already in cache/mshr dropped (Count)
system.cache_hierarchy.l1dcaches.prefetcher.pfRemovedDemand            0                       # number of prefetches dropped due to a demand for the same address (Count)
system.cache_hierarchy.l1dcaches.prefetcher.pfRemovedFull            0                       # number of prefetches dropped due to prefetch queue size (Count)
system.cache_hierarchy.l1dcaches.prefetcher.pfSpanPage            8                       # number of prefetches that crossed the page (Count)
system.cache_hierarchy.l1dcaches.prefetcher.pfUsefulSpanPage            0                       # number of prefetches that is useful and crossed the page (Count)
system.cache_hierarchy.l1dcaches.prefetcher.power_state.pwrStateResidencyTicks::UNDEFINED     26896686                       # Cumulative time (in ticks) in various power states (Tick)
system.cache_hierarchy.l1dcaches.tags.tagsInUse   111.456584                       # Average ticks per tags in use ((Tick/Count))
system.cache_hierarchy.l1dcaches.tags.totalRefs         2651                       # Total number of references to valid blocks. (Count)
system.cache_hierarchy.l1dcaches.tags.sampledRefs          185                       # Sample count of references to valid blocks. (Count)
system.cache_hierarchy.l1dcaches.tags.avgRefs    14.329730                       # Average number of references to valid blocks. ((Count/Count))
system.cache_hierarchy.l1dcaches.tags.warmupTick       125751                       # The tick when the warmup percentage was hit. (Tick)
system.cache_hierarchy.l1dcaches.tags.occupancies::cache_hierarchy.l1dcaches.prefetcher    21.296453                       # Average occupied blocks per tick, per requestor ((Count/Tick))
system.cache_hierarchy.l1dcaches.tags.occupancies::processor.cores.core.data    90.160131                       # Average occupied blocks per tick, per requestor ((Count/Tick))
system.cache_hierarchy.l1dcaches.tags.avgOccs::cache_hierarchy.l1dcaches.prefetcher     0.083189                       # Average percentage of cache occupancy ((Ratio/Tick))
system.cache_hierarchy.l1dcaches.tags.avgOccs::processor.cores.core.data     0.352188                       # Average percentage of cache occupancy ((Ratio/Tick))
system.cache_hierarchy.l1dcaches.tags.avgOccs::total     0.435377                       # Average percentage of cache occupancy ((Ratio/Tick))
system.cache_hierarchy.l1dcaches.tags.occupanciesTaskId::1022           35                       # Occupied blocks per task id (Count)
system.cache_hierarchy.l1dcaches.tags.occupanciesTaskId::1024          150                       # Occupied blocks per task id (Count)
system.cache_hierarchy.l1dcaches.tags.ageTaskId_1022::1           35                       # Occupied blocks per task id, per block age (Count)
system.cache_hierarchy.l1dcaches.tags.ageTaskId_1024::0           39                       # Occupied blocks per task id, per block age (Count)
system.cache_hierarchy.l1dcaches.tags.ageTaskId_1024::1          111                       # Occupied blocks per task id, per block age (Count)
system.cache_hierarchy.l1dcaches.tags.ratioOccsTaskId::1022     0.136719                       # Ratio of occupied blocks and all blocks, per task id (Ratio)
system.cache_hierarchy.l1dcaches.tags.ratioOccsTaskId::1024     0.585938                       # Ratio of occupied blocks and all blocks, per task id (Ratio)
system.cache_hierarchy.l1dcaches.tags.tagAccesses        21161                       # Number of tag accesses (Count)
system.cache_hierarchy.l1dcaches.tags.dataAccesses        21161                       # Number of data accesses (Count)
system.cache_hierarchy.l1dcaches.tags.power_state.pwrStateResidencyTicks::UNDEFINED     26896686                       # Cumulative time (in ticks) in various power states (Tick)
system.cache_hierarchy.l1icaches.demandHits::processor.cores.core.inst         8191                       # number of demand (read+write) hits (Count)
system.cache_hierarchy.l1icaches.demandHits::total         8191                       # number of demand (read+write) hits (Count)
system.cache_hierarchy.l1icaches.overallHits::processor.cores.core.inst         8191                       # number of overall hits (Count)
system.cache_hierarchy.l1icaches.overallHits::total         8191                       # number of overall hits (Count)
system.cache_hierarchy.l1icaches.demandMisses::processor.cores.core.inst          355                       # number of demand (read+write) misses (Count)
system.cache_hierarchy.l1icaches.demandMisses::total          355                       # number of demand (read+write) misses (Count)
system.cache_hierarchy.l1icaches.overallMisses::processor.cores.core.inst          355                       # number of overall misses (Count)
system.cache_hierarchy.l1icaches.overallMisses::total          355                       # number of overall misses (Count)
system.cache_hierarchy.l1icaches.demandMissLatency::processor.cores.core.inst     17709849                       # number of demand (read+write) miss ticks (Tick)
system.cache_hierarchy.l1icaches.demandMissLatency::total     17709849                       # number of demand (read+write) miss ticks (Tick)
system.cache_hierarchy.l1icaches.overallMissLatency::processor.cores.core.inst     17709849                       # number of overall miss ticks (Tick)
system.cache_hierarchy.l1icaches.overallMissLatency::total     17709849                       # number of overall miss ticks (Tick)
system.cache_hierarchy.l1icaches.demandAccesses::processor.cores.core.inst         8546                       # number of demand (read+write) accesses (Count)
system.cache_hierarchy.l1icaches.demandAccesses::total         8546                       # number of demand (read+write) accesses (Count)
system.cache_hierarchy.l1icaches.overallAccesses::processor.cores.core.inst         8546                       # number of overall (read+write) accesses (Count)
system.cache_hierarchy.l1icaches.overallAccesses::total         8546                       # number of overall (read+write) accesses (Count)
system.cache_hierarchy.l1icaches.demandMissRate::processor.cores.core.inst     0.041540                       # miss rate for demand accesses (Ratio)
system.cache_hierarchy.l1icaches.demandMissRate::total     0.041540                       # miss rate for demand accesses (Ratio)
system.cache_hierarchy.l1icaches.overallMissRate::processor.cores.core.inst     0.041540                       # miss rate for overall accesses (Ratio)
system.cache_hierarchy.l1icaches.overallMissRate::total     0.041540                       # miss rate for overall accesses (Ratio)
system.cache_hierarchy.l1icaches.demandAvgMissLatency::processor.cores.core.inst 49886.898592                       # average overall miss latency in ticks ((Tick/Count))
system.cache_hierarchy.l1icaches.demandAvgMissLatency::total 49886.898592                       # average overall miss latency in ticks ((Tick/Count))
system.cache_hierarchy.l1icaches.overallAvgMissLatency::processor.cores.core.inst 49886.898592                       # average overall miss latency ((Tick/Count))
system.cache_hierarchy.l1icaches.overallAvgMissLatency::total 49886.898592                       # average overall miss latency ((Tick/Count))
system.cache_hierarchy.l1icaches.blockedCycles::no_mshrs            0                       # number of cycles access was blocked (Cycle)
system.cache_hierarchy.l1icaches.blockedCycles::no_targets            0                       # number of cycles access was blocked (Cycle)
system.cache_hierarchy.l1icaches.blockedCauses::no_mshrs            0                       # number of times access was blocked (Count)
system.cache_hierarchy.l1icaches.blockedCauses::no_targets            0                       # number of times access was blocked (Count)
system.cache_hierarchy.l1icaches.avgBlocked::no_mshrs          nan                       # average number of cycles each access was blocked ((Cycle/Count))
system.cache_hierarchy.l1icaches.avgBlocked::no_targets          nan                       # average number of cycles each access was blocked ((Cycle/Count))
system.cache_hierarchy.l1icaches.writebacks::writebacks           99                       # number of writebacks (Count)
system.cache_hierarchy.l1icaches.writebacks::total           99                       # number of writebacks (Count)
system.cache_hierarchy.l1icaches.demandMshrMisses::processor.cores.core.inst          355                       # number of demand (read+write) MSHR misses (Count)
system.cache_hierarchy.l1icaches.demandMshrMisses::total          355                       # number of demand (read+write) MSHR misses (Count)
system.cache_hierarchy.l1icaches.overallMshrMisses::processor.cores.core.inst          355                       # number of overall MSHR misses (Count)
system.cache_hierarchy.l1icaches.overallMshrMisses::total          355                       # number of overall MSHR misses (Count)
system.cache_hierarchy.l1icaches.demandMshrMissLatency::processor.cores.core.inst     17650564                       # number of demand (read+write) MSHR miss ticks (Tick)
system.cache_hierarchy.l1icaches.demandMshrMissLatency::total     17650564                       # number of demand (read+write) MSHR miss ticks (Tick)
system.cache_hierarchy.l1icaches.overallMshrMissLatency::processor.cores.core.inst     17650564                       # number of overall MSHR miss ticks (Tick)
system.cache_hierarchy.l1icaches.overallMshrMissLatency::total     17650564                       # number of overall MSHR miss ticks (Tick)
system.cache_hierarchy.l1icaches.demandMshrMissRate::processor.cores.core.inst     0.041540                       # mshr miss ratio for demand accesses (Ratio)
system.cache_hierarchy.l1icaches.demandMshrMissRate::total     0.041540                       # mshr miss ratio for demand accesses (Ratio)
system.cache_hierarchy.l1icaches.overallMshrMissRate::processor.cores.core.inst     0.041540                       # mshr miss ratio for overall accesses (Ratio)
system.cache_hierarchy.l1icaches.overallMshrMissRate::total     0.041540                       # mshr miss ratio for overall accesses (Ratio)
system.cache_hierarchy.l1icaches.demandAvgMshrMissLatency::processor.cores.core.inst 49719.898592                       # average overall mshr miss latency ((Tick/Count))
system.cache_hierarchy.l1icaches.demandAvgMshrMissLatency::total 49719.898592                       # average overall mshr miss latency ((Tick/Count))
system.cache_hierarchy.l1icaches.overallAvgMshrMissLatency::processor.cores.core.inst 49719.898592                       # average overall mshr miss latency ((Tick/Count))
system.cache_hierarchy.l1icaches.overallAvgMshrMissLatency::total 49719.898592                       # average overall mshr miss latency ((Tick/Count))
system.cache_hierarchy.l1icaches.replacements           99                       # number of replacements (Count)
system.cache_hierarchy.l1icaches.ReadReq.hits::processor.cores.core.inst         8191                       # number of ReadReq hits (Count)
system.cache_hierarchy.l1icaches.ReadReq.hits::total         8191                       # number of ReadReq hits (Count)
system.cache_hierarchy.l1icaches.ReadReq.misses::processor.cores.core.inst          355                       # number of ReadReq misses (Count)
system.cache_hierarchy.l1icaches.ReadReq.misses::total          355                       # number of ReadReq misses (Count)
system.cache_hierarchy.l1icaches.ReadReq.missLatency::processor.cores.core.inst     17709849                       # number of ReadReq miss ticks (Tick)
system.cache_hierarchy.l1icaches.ReadReq.missLatency::total     17709849                       # number of ReadReq miss ticks (Tick)
system.cache_hierarchy.l1icaches.ReadReq.accesses::processor.cores.core.inst         8546                       # number of ReadReq accesses(hits+misses) (Count)
system.cache_hierarchy.l1icaches.ReadReq.accesses::total         8546                       # number of ReadReq accesses(hits+misses) (Count)
system.cache_hierarchy.l1icaches.ReadReq.missRate::processor.cores.core.inst     0.041540                       # miss rate for ReadReq accesses (Ratio)
system.cache_hierarchy.l1icaches.ReadReq.missRate::total     0.041540                       # miss rate for ReadReq accesses (Ratio)
system.cache_hierarchy.l1icaches.ReadReq.avgMissLatency::processor.cores.core.inst 49886.898592                       # average ReadReq miss latency ((Tick/Count))
system.cache_hierarchy.l1icaches.ReadReq.avgMissLatency::total 49886.898592                       # average ReadReq miss latency ((Tick/Count))
system.cache_hierarchy.l1icaches.ReadReq.mshrMisses::processor.cores.core.inst          355                       # number of ReadReq MSHR misses (Count)
system.cache_hierarchy.l1icaches.ReadReq.mshrMisses::total          355                       # number of ReadReq MSHR misses (Count)
system.cache_hierarchy.l1icaches.ReadReq.mshrMissLatency::processor.cores.core.inst     17650564                       # number of ReadReq MSHR miss ticks (Tick)
system.cache_hierarchy.l1icaches.ReadReq.mshrMissLatency::total     17650564                       # number of ReadReq MSHR miss ticks (Tick)
system.cache_hierarchy.l1icaches.ReadReq.mshrMissRate::processor.cores.core.inst     0.041540                       # mshr miss rate for ReadReq accesses (Ratio)
system.cache_hierarchy.l1icaches.ReadReq.mshrMissRate::total     0.041540                       # mshr miss rate for ReadReq accesses (Ratio)
system.cache_hierarchy.l1icaches.ReadReq.avgMshrMissLatency::processor.cores.core.inst 49719.898592                       # average ReadReq mshr miss latency ((Tick/Count))
system.cache_hierarchy.l1icaches.ReadReq.avgMshrMissLatency::total 49719.898592                       # average ReadReq mshr miss latency ((Tick/Count))
system.cache_hierarchy.l1icaches.power_state.pwrStateResidencyTicks::UNDEFINED     26896686                       # Cumulative time (in ticks) in various power states (Tick)
system.cache_hierarchy.l1icaches.prefetcher.demandMshrMisses          355                       # demands not covered by prefetchs (Count)
system.cache_hierarchy.l1icaches.prefetcher.pfIssued            0                       # number of hwpf issued (Count)
system.cache_hierarchy.l1icaches.prefetcher.pfUseful            0                       # number of useful prefetch (Count)
system.cache_hierarchy.l1icaches.prefetcher.pfUsefulButMiss            0                       # number of hit on prefetch but cache block is not in an usable state (Count)
system.cache_hierarchy.l1icaches.prefetcher.accuracy          nan                       # accuracy of the prefetcher (Count)
system.cache_hierarchy.l1icaches.prefetcher.coverage            0                       # coverage brought by this prefetcher (Count)
system.cache_hierarchy.l1icaches.prefetcher.pfHitInCache            0                       # number of prefetches hitting in cache (Count)
system.cache_hierarchy.l1icaches.prefetcher.pfHitInMSHR            0                       # number of prefetches hitting in a MSHR (Count)
system.cache_hierarchy.l1icaches.prefetcher.pfHitInWB            0                       # number of prefetches hit in the Write Buffer (Count)
system.cache_hierarchy.l1icaches.prefetcher.pfLate            0                       # number of late prefetches (hitting in cache, MSHR or WB) (Count)
system.cache_hierarchy.l1icaches.prefetcher.pfIdentified            0                       # number of prefetch candidates identified (Count)
system.cache_hierarchy.l1icaches.prefetcher.pfBufferHit            0                       # number of redundant prefetches already in prefetch queue (Count)
system.cache_hierarchy.l1icaches.prefetcher.pfInCache            0                       # number of redundant prefetches already in cache/mshr dropped (Count)
system.cache_hierarchy.l1icaches.prefetcher.pfRemovedDemand            0                       # number of prefetches dropped due to a demand for the same address (Count)
system.cache_hierarchy.l1icaches.prefetcher.pfRemovedFull            0                       # number of prefetches dropped due to prefetch queue size (Count)
system.cache_hierarchy.l1icaches.prefetcher.pfSpanPage            0                       # number of prefetches that crossed the page (Count)
system.cache_hierarchy.l1icaches.prefetcher.pfUsefulSpanPage            0                       # number of prefetches that is useful and crossed the page (Count)
system.cache_hierarchy.l1icaches.prefetcher.power_state.pwrStateResidencyTicks::UNDEFINED     26896686                       # Cumulative time (in ticks) in various power states (Tick)
system.cache_hierarchy.l1icaches.tags.tagsInUse   149.218199                       # Average ticks per tags in use ((Tick/Count))
system.cache_hierarchy.l1icaches.tags.totalRefs         8546                       # Total number of references to valid blocks. (Count)
system.cache_hierarchy.l1icaches.tags.sampledRefs          355                       # Sample count of references to valid blocks. (Count)
system.cache_hierarchy.l1icaches.tags.avgRefs    24.073239                       # Average number of references to valid blocks. ((Count/Count))
system.cache_hierarchy.l1icaches.tags.warmupTick        68303                       # The tick when the warmup percentage was hit. (Tick)
system.cache_hierarchy.l1icaches.tags.occupancies::processor.cores.core.inst   149.218199                       # Average occupied blocks per tick, per requestor ((Count/Tick))
system.cache_hierarchy.l1icaches.tags.avgOccs::processor.cores.core.inst     0.582884                       # Average percentage of cache occupancy ((Ratio/Tick))
system.cache_hierarchy.l1icaches.tags.avgOccs::total     0.582884                       # Average percentage of cache occupancy ((Ratio/Tick))
system.cache_hierarchy.l1icaches.tags.occupanciesTaskId::1024          256                       # Occupied blocks per task id (Count)
system.cache_hierarchy.l1icaches.tags.ageTaskId_1024::0          146                       # Occupied blocks per task id, per block age (Count)
system.cache_hierarchy.l1icaches.tags.ageTaskId_1024::1          110                       # Occupied blocks per task id, per block age (Count)
system.cache_hierarchy.l1icaches.tags.ratioOccsTaskId::1024            1                       # Ratio of occupied blocks and all blocks, per task id (Ratio)
system.cache_hierarchy.l1icaches.tags.tagAccesses        68723                       # Number of tag accesses (Count)
system.cache_hierarchy.l1icaches.tags.dataAccesses        68723                       # Number of data accesses (Count)
system.cache_hierarchy.l1icaches.tags.power_state.pwrStateResidencyTicks::UNDEFINED     26896686                       # Cumulative time (in ticks) in various power states (Tick)
system.cache_hierarchy.l2buses.transDist::ReadResp          470                       # Transaction distribution (Count)
system.cache_hierarchy.l2buses.transDist::WritebackClean           99                       # Transaction distribution (Count)
system.cache_hierarchy.l2buses.transDist::HardPFReq           55                       # Transaction distribution (Count)
system.cache_hierarchy.l2buses.transDist::ReadExReq           70                       # Transaction distribution (Count)
system.cache_hierarchy.l2buses.transDist::ReadExResp           70                       # Transaction distribution (Count)
system.cache_hierarchy.l2buses.transDist::ReadSharedReq          470                       # Transaction distribution (Count)
system.cache_hierarchy.l2buses.pktCount_system.cache_hierarchy.l1icaches.mem_side_port::system.cache_hierarchy.l2caches.cpu_side_port          809                       # Packet count per connected requestor and responder (Count)
system.cache_hierarchy.l2buses.pktCount_system.cache_hierarchy.l1dcaches.mem_side_port::system.cache_hierarchy.l2caches.cpu_side_port          370                       # Packet count per connected requestor and responder (Count)
system.cache_hierarchy.l2buses.pktCount::total         1179                       # Packet count per connected requestor and responder (Count)
system.cache_hierarchy.l2buses.pktSize_system.cache_hierarchy.l1icaches.mem_side_port::system.cache_hierarchy.l2caches.cpu_side_port        29056                       # Cumulative packet size per connected requestor and responder (Byte)
system.cache_hierarchy.l2buses.pktSize_system.cache_hierarchy.l1dcaches.mem_side_port::system.cache_hierarchy.l2caches.cpu_side_port        11840                       # Cumulative packet size per connected requestor and responder (Byte)
system.cache_hierarchy.l2buses.pktSize::total        40896                       # Cumulative packet size per connected requestor and responder (Byte)
system.cache_hierarchy.l2buses.snoops              55                       # Total snoops (Count)
system.cache_hierarchy.l2buses.snoopTraffic            0                       # Total snoop traffic (Byte)
system.cache_hierarchy.l2buses.snoopFanout::samples          595                       # Request fanout histogram (Count)
system.cache_hierarchy.l2buses.snoopFanout::mean     0.001681                       # Request fanout histogram (Count)
system.cache_hierarchy.l2buses.snoopFanout::stdev     0.040996                       # Request fanout histogram (Count)
system.cache_hierarchy.l2buses.snoopFanout::underflows            0      0.00%      0.00% # Request fanout histogram (Count)
system.cache_hierarchy.l2buses.snoopFanout::0          594     99.83%     99.83% # Request fanout histogram (Count)
system.cache_hierarchy.l2buses.snoopFanout::1            1      0.17%    100.00% # Request fanout histogram (Count)
system.cache_hierarchy.l2buses.snoopFanout::2            0      0.00%    100.00% # Request fanout histogram (Count)
system.cache_hierarchy.l2buses.snoopFanout::3            0      0.00%    100.00% # Request fanout histogram (Count)
system.cache_hierarchy.l2buses.snoopFanout::4            0      0.00%    100.00% # Request fanout histogram (Count)
system.cache_hierarchy.l2buses.snoopFanout::overflows            0      0.00%    100.00% # Request fanout histogram (Count)
system.cache_hierarchy.l2buses.snoopFanout::min_value            0                       # Request fanout histogram (Count)
system.cache_hierarchy.l2buses.snoopFanout::max_value            1                       # Request fanout histogram (Count)
system.cache_hierarchy.l2buses.snoopFanout::total          595                       # Request fanout histogram (Count)
system.cache_hierarchy.l2buses.power_state.pwrStateResidencyTicks::UNDEFINED     26896686                       # Cumulative time (in ticks) in various power states (Tick)
system.cache_hierarchy.l2buses.reqLayer0.occupancy       140604                       # Layer occupancy (ticks) (Tick)
system.cache_hierarchy.l2buses.reqLayer0.utilization          0.0                       # Layer utilization (Ratio)
system.cache_hierarchy.l2buses.respLayer0.occupancy       177855                       # Layer occupancy (ticks) (Tick)
system.cache_hierarchy.l2buses.respLayer0.utilization          0.0                       # Layer utilization (Ratio)
system.cache_hierarchy.l2buses.respLayer1.occupancy        92685                       # Layer occupancy (ticks) (Tick)
system.cache_hierarchy.l2buses.respLayer1.utilization          0.0                       # Layer utilization (Ratio)
system.cache_hierarchy.l2buses.snoop_filter.totRequests          639                       # Total number of requests made to the snoop filter. (Count)
system.cache_hierarchy.l2buses.snoop_filter.hitSingleRequests          100                       # Number of requests hitting in the snoop filter with a single holder of the requested data. (Count)
system.cache_hierarchy.l2buses.snoop_filter.hitMultiRequests            0                       # Number of requests hitting in the snoop filter with multiple (>1) holders of the requested data. (Count)
system.cache_hierarchy.l2buses.snoop_filter.totSnoops            0                       # Total number of snoops made to the snoop filter. (Count)
system.cache_hierarchy.l2buses.snoop_filter.hitSingleSnoops            0                       # Number of snoops hitting in the snoop filter with a single holder of the requested data. (Count)
system.cache_hierarchy.l2buses.snoop_filter.hitMultiSnoops            0                       # Number of snoops hitting in the snoop filter with multiple (>1) holders of the requested data. (Count)
system.cache_hierarchy.l2caches.demandHits::cache_hierarchy.l1dcaches.prefetcher            7                       # number of demand (read+write) hits (Count)
system.cache_hierarchy.l2caches.demandHits::processor.cores.core.inst            2                       # number of demand (read+write) hits (Count)
system.cache_hierarchy.l2caches.demandHits::processor.cores.core.data            9                       # number of demand (read+write) hits (Count)
system.cache_hierarchy.l2caches.demandHits::total           18                       # number of demand (read+write) hits (Count)
system.cache_hierarchy.l2caches.overallHits::cache_hierarchy.l1dcaches.prefetcher            7                       # number of overall hits (Count)
system.cache_hierarchy.l2caches.overallHits::processor.cores.core.inst            2                       # number of overall hits (Count)
system.cache_hierarchy.l2caches.overallHits::processor.cores.core.data            9                       # number of overall hits (Count)
system.cache_hierarchy.l2caches.overallHits::total           18                       # number of overall hits (Count)
system.cache_hierarchy.l2caches.demandMisses::cache_hierarchy.l1dcaches.prefetcher           28                       # number of demand (read+write) misses (Count)
system.cache_hierarchy.l2caches.demandMisses::processor.cores.core.inst          353                       # number of demand (read+write) misses (Count)
system.cache_hierarchy.l2caches.demandMisses::processor.cores.core.data          141                       # number of demand (read+write) misses (Count)
system.cache_hierarchy.l2caches.demandMisses::total          522                       # number of demand (read+write) misses (Count)
system.cache_hierarchy.l2caches.overallMisses::cache_hierarchy.l1dcaches.prefetcher           28                       # number of overall misses (Count)
system.cache_hierarchy.l2caches.overallMisses::processor.cores.core.inst          353                       # number of overall misses (Count)
system.cache_hierarchy.l2caches.overallMisses::processor.cores.core.data          141                       # number of overall misses (Count)
system.cache_hierarchy.l2caches.overallMisses::total          522                       # number of overall misses (Count)
system.cache_hierarchy.l2caches.demandMissLatency::cache_hierarchy.l1dcaches.prefetcher      2207735                       # number of demand (read+write) miss ticks (Tick)
system.cache_hierarchy.l2caches.demandMissLatency::processor.cores.core.inst     17527652                       # number of demand (read+write) miss ticks (Tick)
system.cache_hierarchy.l2caches.demandMissLatency::processor.cores.core.data      7028863                       # number of demand (read+write) miss ticks (Tick)
system.cache_hierarchy.l2caches.demandMissLatency::total     26764250                       # number of demand (read+write) miss ticks (Tick)
system.cache_hierarchy.l2caches.overallMissLatency::cache_hierarchy.l1dcaches.prefetcher      2207735                       # number of overall miss ticks (Tick)
system.cache_hierarchy.l2caches.overallMissLatency::processor.cores.core.inst     17527652                       # number of overall miss ticks (Tick)
system.cache_hierarchy.l2caches.overallMissLatency::processor.cores.core.data      7028863                       # number of overall miss ticks (Tick)
system.cache_hierarchy.l2caches.overallMissLatency::total     26764250                       # number of overall miss ticks (Tick)
system.cache_hierarchy.l2caches.demandAccesses::cache_hierarchy.l1dcaches.prefetcher           35                       # number of demand (read+write) accesses (Count)
system.cache_hierarchy.l2caches.demandAccesses::processor.cores.core.inst          355                       # number of demand (read+write) accesses (Count)
system.cache_hierarchy.l2caches.demandAccesses::processor.cores.core.data          150                       # number of demand (read+write) accesses (Count)
system.cache_hierarchy.l2caches.demandAccesses::total          540                       # number of demand (read+write) accesses (Count)
system.cache_hierarchy.l2caches.overallAccesses::cache_hierarchy.l1dcaches.prefetcher           35                       # number of overall (read+write) accesses (Count)
system.cache_hierarchy.l2caches.overallAccesses::processor.cores.core.inst          355                       # number of overall (read+write) accesses (Count)
system.cache_hierarchy.l2caches.overallAccesses::processor.cores.core.data          150                       # number of overall (read+write) accesses (Count)
system.cache_hierarchy.l2caches.overallAccesses::total          540                       # number of overall (read+write) accesses (Count)
system.cache_hierarchy.l2caches.demandMissRate::cache_hierarchy.l1dcaches.prefetcher     0.800000                       # miss rate for demand accesses (Ratio)
system.cache_hierarchy.l2caches.demandMissRate::processor.cores.core.inst     0.994366                       # miss rate for demand accesses (Ratio)
system.cache_hierarchy.l2caches.demandMissRate::processor.cores.core.data     0.940000                       # miss rate for demand accesses (Ratio)
system.cache_hierarchy.l2caches.demandMissRate::total     0.966667                       # miss rate for demand accesses (Ratio)
system.cache_hierarchy.l2caches.overallMissRate::cache_hierarchy.l1dcaches.prefetcher     0.800000                       # miss rate for overall accesses (Ratio)
system.cache_hierarchy.l2caches.overallMissRate::processor.cores.core.inst     0.994366                       # miss rate for overall accesses (Ratio)
system.cache_hierarchy.l2caches.overallMissRate::processor.cores.core.data     0.940000                       # miss rate for overall accesses (Ratio)
system.cache_hierarchy.l2caches.overallMissRate::total     0.966667                       # miss rate for overall accesses (Ratio)
system.cache_hierarchy.l2caches.demandAvgMissLatency::cache_hierarchy.l1dcaches.prefetcher 78847.678571                       # average overall miss latency in ticks ((Tick/Count))
system.cache_hierarchy.l2caches.demandAvgMissLatency::processor.cores.core.inst 49653.405099                       # average overall miss latency in ticks ((Tick/Count))
system.cache_hierarchy.l2caches.demandAvgMissLatency::processor.cores.core.data 49850.092199                       # average overall miss latency in ticks ((Tick/Count))
system.cache_hierarchy.l2caches.demandAvgMissLatency::total 51272.509579                       # average overall miss latency in ticks ((Tick/Count))
system.cache_hierarchy.l2caches.overallAvgMissLatency::cache_hierarchy.l1dcaches.prefetcher 78847.678571                       # average overall miss latency ((Tick/Count))
system.cache_hierarchy.l2caches.overallAvgMissLatency::processor.cores.core.inst 49653.405099                       # average overall miss latency ((Tick/Count))
system.cache_hierarchy.l2caches.overallAvgMissLatency::processor.cores.core.data 49850.092199                       # average overall miss latency ((Tick/Count))
system.cache_hierarchy.l2caches.overallAvgMissLatency::total 51272.509579                       # average overall miss latency ((Tick/Count))
system.cache_hierarchy.l2caches.blockedCycles::no_mshrs            0                       # number of cycles access was blocked (Cycle)
system.cache_hierarchy.l2caches.blockedCycles::no_targets            0                       # number of cycles access was blocked (Cycle)
system.cache_hierarchy.l2caches.blockedCauses::no_mshrs            0                       # number of times access was blocked (Count)
system.cache_hierarchy.l2caches.blockedCauses::no_targets            0                       # number of times access was blocked (Count)
system.cache_hierarchy.l2caches.avgBlocked::no_mshrs          nan                       # average number of cycles each access was blocked ((Cycle/Count))
system.cache_hierarchy.l2caches.avgBlocked::no_targets          nan                       # average number of cycles each access was blocked ((Cycle/Count))
system.cache_hierarchy.l2caches.demandMshrHits::cache_hierarchy.l1dcaches.prefetcher            9                       # number of demand (read+write) MSHR hits (Count)
system.cache_hierarchy.l2caches.demandMshrHits::total            9                       # number of demand (read+write) MSHR hits (Count)
system.cache_hierarchy.l2caches.overallMshrHits::cache_hierarchy.l1dcaches.prefetcher            9                       # number of overall MSHR hits (Count)
system.cache_hierarchy.l2caches.overallMshrHits::total            9                       # number of overall MSHR hits (Count)
system.cache_hierarchy.l2caches.demandMshrMisses::cache_hierarchy.l1dcaches.prefetcher           19                       # number of demand (read+write) MSHR misses (Count)
system.cache_hierarchy.l2caches.demandMshrMisses::processor.cores.core.inst          353                       # number of demand (read+write) MSHR misses (Count)
system.cache_hierarchy.l2caches.demandMshrMisses::processor.cores.core.data          141                       # number of demand (read+write) MSHR misses (Count)
system.cache_hierarchy.l2caches.demandMshrMisses::total          513                       # number of demand (read+write) MSHR misses (Count)
system.cache_hierarchy.l2caches.overallMshrMisses::cache_hierarchy.l1dcaches.prefetcher           19                       # number of overall MSHR misses (Count)
system.cache_hierarchy.l2caches.overallMshrMisses::cache_hierarchy.l2caches.prefetcher           31                       # number of overall MSHR misses (Count)
system.cache_hierarchy.l2caches.overallMshrMisses::processor.cores.core.inst          353                       # number of overall MSHR misses (Count)
system.cache_hierarchy.l2caches.overallMshrMisses::processor.cores.core.data          141                       # number of overall MSHR misses (Count)
system.cache_hierarchy.l2caches.overallMshrMisses::total          544                       # number of overall MSHR misses (Count)
system.cache_hierarchy.l2caches.demandMshrMissLatency::cache_hierarchy.l1dcaches.prefetcher      1768361                       # number of demand (read+write) MSHR miss ticks (Tick)
system.cache_hierarchy.l2caches.demandMshrMissLatency::processor.cores.core.inst     17468701                       # number of demand (read+write) MSHR miss ticks (Tick)
system.cache_hierarchy.l2caches.demandMshrMissLatency::processor.cores.core.data      7005316                       # number of demand (read+write) MSHR miss ticks (Tick)
system.cache_hierarchy.l2caches.demandMshrMissLatency::total     26242378                       # number of demand (read+write) MSHR miss ticks (Tick)
system.cache_hierarchy.l2caches.overallMshrMissLatency::cache_hierarchy.l1dcaches.prefetcher      1768361                       # number of overall MSHR miss ticks (Tick)
system.cache_hierarchy.l2caches.overallMshrMissLatency::cache_hierarchy.l2caches.prefetcher      1893747                       # number of overall MSHR miss ticks (Tick)
system.cache_hierarchy.l2caches.overallMshrMissLatency::processor.cores.core.inst     17468701                       # number of overall MSHR miss ticks (Tick)
system.cache_hierarchy.l2caches.overallMshrMissLatency::processor.cores.core.data      7005316                       # number of overall MSHR miss ticks (Tick)
system.cache_hierarchy.l2caches.overallMshrMissLatency::total     28136125                       # number of overall MSHR miss ticks (Tick)
system.cache_hierarchy.l2caches.demandMshrMissRate::cache_hierarchy.l1dcaches.prefetcher     0.542857                       # mshr miss ratio for demand accesses (Ratio)
system.cache_hierarchy.l2caches.demandMshrMissRate::processor.cores.core.inst     0.994366                       # mshr miss ratio for demand accesses (Ratio)
system.cache_hierarchy.l2caches.demandMshrMissRate::processor.cores.core.data     0.940000                       # mshr miss ratio for demand accesses (Ratio)
system.cache_hierarchy.l2caches.demandMshrMissRate::total     0.950000                       # mshr miss ratio for demand accesses (Ratio)
system.cache_hierarchy.l2caches.overallMshrMissRate::cache_hierarchy.l1dcaches.prefetcher     0.542857                       # mshr miss ratio for overall accesses (Ratio)
system.cache_hierarchy.l2caches.overallMshrMissRate::cache_hierarchy.l2caches.prefetcher          inf                       # mshr miss ratio for overall accesses (Ratio)
system.cache_hierarchy.l2caches.overallMshrMissRate::processor.cores.core.inst     0.994366                       # mshr miss ratio for overall accesses (Ratio)
system.cache_hierarchy.l2caches.overallMshrMissRate::processor.cores.core.data     0.940000                       # mshr miss ratio for overall accesses (Ratio)
system.cache_hierarchy.l2caches.overallMshrMissRate::total     1.007407                       # mshr miss ratio for overall accesses (Ratio)
system.cache_hierarchy.l2caches.demandAvgMshrMissLatency::cache_hierarchy.l1dcaches.prefetcher 93071.631579                       # average overall mshr miss latency ((Tick/Count))
system.cache_hierarchy.l2caches.demandAvgMshrMissLatency::processor.cores.core.inst 49486.405099                       # average overall mshr miss latency ((Tick/Count))
system.cache_hierarchy.l2caches.demandAvgMshrMissLatency::processor.cores.core.data 49683.092199                       # average overall mshr miss latency ((Tick/Count))
system.cache_hierarchy.l2caches.demandAvgMshrMissLatency::total 51154.732943                       # average overall mshr miss latency ((Tick/Count))
system.cache_hierarchy.l2caches.overallAvgMshrMissLatency::cache_hierarchy.l1dcaches.prefetcher 93071.631579                       # average overall mshr miss latency ((Tick/Count))
system.cache_hierarchy.l2caches.overallAvgMshrMissLatency::cache_hierarchy.l2caches.prefetcher 61088.612903                       # average overall mshr miss latency ((Tick/Count))
system.cache_hierarchy.l2caches.overallAvgMshrMissLatency::processor.cores.core.inst 49486.405099                       # average overall mshr miss latency ((Tick/Count))
system.cache_hierarchy.l2caches.overallAvgMshrMissLatency::processor.cores.core.data 49683.092199                       # average overall mshr miss latency ((Tick/Count))
system.cache_hierarchy.l2caches.overallAvgMshrMissLatency::total 51720.818015                       # average overall mshr miss latency ((Tick/Count))
system.cache_hierarchy.l2caches.replacements            0                       # number of replacements (Count)
system.cache_hierarchy.l2caches.HardPFReq.mshrMisses::cache_hierarchy.l2caches.prefetcher           31                       # number of HardPFReq MSHR misses (Count)
system.cache_hierarchy.l2caches.HardPFReq.mshrMisses::total           31                       # number of HardPFReq MSHR misses (Count)
system.cache_hierarchy.l2caches.HardPFReq.mshrMissLatency::cache_hierarchy.l2caches.prefetcher      1893747                       # number of HardPFReq MSHR miss ticks (Tick)
system.cache_hierarchy.l2caches.HardPFReq.mshrMissLatency::total      1893747                       # number of HardPFReq MSHR miss ticks (Tick)
system.cache_hierarchy.l2caches.HardPFReq.mshrMissRate::cache_hierarchy.l2caches.prefetcher          inf                       # mshr miss rate for HardPFReq accesses (Ratio)
system.cache_hierarchy.l2caches.HardPFReq.mshrMissRate::total          inf                       # mshr miss rate for HardPFReq accesses (Ratio)
system.cache_hierarchy.l2caches.HardPFReq.avgMshrMissLatency::cache_hierarchy.l2caches.prefetcher 61088.612903                       # average HardPFReq mshr miss latency ((Tick/Count))
system.cache_hierarchy.l2caches.HardPFReq.avgMshrMissLatency::total 61088.612903                       # average HardPFReq mshr miss latency ((Tick/Count))
system.cache_hierarchy.l2caches.ReadExReq.hits::processor.cores.core.data            9                       # number of ReadExReq hits (Count)
system.cache_hierarchy.l2caches.ReadExReq.hits::total            9                       # number of ReadExReq hits (Count)
system.cache_hierarchy.l2caches.ReadExReq.misses::processor.cores.core.data           61                       # number of ReadExReq misses (Count)
system.cache_hierarchy.l2caches.ReadExReq.misses::total           61                       # number of ReadExReq misses (Count)
system.cache_hierarchy.l2caches.ReadExReq.missLatency::processor.cores.core.data      3033889                       # number of ReadExReq miss ticks (Tick)
system.cache_hierarchy.l2caches.ReadExReq.missLatency::total      3033889                       # number of ReadExReq miss ticks (Tick)
system.cache_hierarchy.l2caches.ReadExReq.accesses::processor.cores.core.data           70                       # number of ReadExReq accesses(hits+misses) (Count)
system.cache_hierarchy.l2caches.ReadExReq.accesses::total           70                       # number of ReadExReq accesses(hits+misses) (Count)
system.cache_hierarchy.l2caches.ReadExReq.missRate::processor.cores.core.data     0.871429                       # miss rate for ReadExReq accesses (Ratio)
system.cache_hierarchy.l2caches.ReadExReq.missRate::total     0.871429                       # miss rate for ReadExReq accesses (Ratio)
system.cache_hierarchy.l2caches.ReadExReq.avgMissLatency::processor.cores.core.data 49735.885246                       # average ReadExReq miss latency ((Tick/Count))
system.cache_hierarchy.l2caches.ReadExReq.avgMissLatency::total 49735.885246                       # average ReadExReq miss latency ((Tick/Count))
system.cache_hierarchy.l2caches.ReadExReq.mshrMisses::processor.cores.core.data           61                       # number of ReadExReq MSHR misses (Count)
system.cache_hierarchy.l2caches.ReadExReq.mshrMisses::total           61                       # number of ReadExReq MSHR misses (Count)
system.cache_hierarchy.l2caches.ReadExReq.mshrMissLatency::processor.cores.core.data      3023702                       # number of ReadExReq MSHR miss ticks (Tick)
system.cache_hierarchy.l2caches.ReadExReq.mshrMissLatency::total      3023702                       # number of ReadExReq MSHR miss ticks (Tick)
system.cache_hierarchy.l2caches.ReadExReq.mshrMissRate::processor.cores.core.data     0.871429                       # mshr miss rate for ReadExReq accesses (Ratio)
system.cache_hierarchy.l2caches.ReadExReq.mshrMissRate::total     0.871429                       # mshr miss rate for ReadExReq accesses (Ratio)
system.cache_hierarchy.l2caches.ReadExReq.avgMshrMissLatency::processor.cores.core.data 49568.885246                       # average ReadExReq mshr miss latency ((Tick/Count))
system.cache_hierarchy.l2caches.ReadExReq.avgMshrMissLatency::total 49568.885246                       # average ReadExReq mshr miss latency ((Tick/Count))
system.cache_hierarchy.l2caches.ReadSharedReq.hits::cache_hierarchy.l1dcaches.prefetcher            7                       # number of ReadSharedReq hits (Count)
system.cache_hierarchy.l2caches.ReadSharedReq.hits::processor.cores.core.inst            2                       # number of ReadSharedReq hits (Count)
system.cache_hierarchy.l2caches.ReadSharedReq.hits::total            9                       # number of ReadSharedReq hits (Count)
system.cache_hierarchy.l2caches.ReadSharedReq.misses::cache_hierarchy.l1dcaches.prefetcher           28                       # number of ReadSharedReq misses (Count)
system.cache_hierarchy.l2caches.ReadSharedReq.misses::processor.cores.core.inst          353                       # number of ReadSharedReq misses (Count)
system.cache_hierarchy.l2caches.ReadSharedReq.misses::processor.cores.core.data           80                       # number of ReadSharedReq misses (Count)
system.cache_hierarchy.l2caches.ReadSharedReq.misses::total          461                       # number of ReadSharedReq misses (Count)
system.cache_hierarchy.l2caches.ReadSharedReq.missLatency::cache_hierarchy.l1dcaches.prefetcher      2207735                       # number of ReadSharedReq miss ticks (Tick)
system.cache_hierarchy.l2caches.ReadSharedReq.missLatency::processor.cores.core.inst     17527652                       # number of ReadSharedReq miss ticks (Tick)
system.cache_hierarchy.l2caches.ReadSharedReq.missLatency::processor.cores.core.data      3994974                       # number of ReadSharedReq miss ticks (Tick)
system.cache_hierarchy.l2caches.ReadSharedReq.missLatency::total     23730361                       # number of ReadSharedReq miss ticks (Tick)
system.cache_hierarchy.l2caches.ReadSharedReq.accesses::cache_hierarchy.l1dcaches.prefetcher           35                       # number of ReadSharedReq accesses(hits+misses) (Count)
system.cache_hierarchy.l2caches.ReadSharedReq.accesses::processor.cores.core.inst          355                       # number of ReadSharedReq accesses(hits+misses) (Count)
system.cache_hierarchy.l2caches.ReadSharedReq.accesses::processor.cores.core.data           80                       # number of ReadSharedReq accesses(hits+misses) (Count)
system.cache_hierarchy.l2caches.ReadSharedReq.accesses::total          470                       # number of ReadSharedReq accesses(hits+misses) (Count)
system.cache_hierarchy.l2caches.ReadSharedReq.missRate::cache_hierarchy.l1dcaches.prefetcher     0.800000                       # miss rate for ReadSharedReq accesses (Ratio)
system.cache_hierarchy.l2caches.ReadSharedReq.missRate::processor.cores.core.inst     0.994366                       # miss rate for ReadSharedReq accesses (Ratio)
system.cache_hierarchy.l2caches.ReadSharedReq.missRate::processor.cores.core.data            1                       # miss rate for ReadSharedReq accesses (Ratio)
system.cache_hierarchy.l2caches.ReadSharedReq.missRate::total     0.980851                       # miss rate for ReadSharedReq accesses (Ratio)
system.cache_hierarchy.l2caches.ReadSharedReq.avgMissLatency::cache_hierarchy.l1dcaches.prefetcher 78847.678571                       # average ReadSharedReq miss latency ((Tick/Count))
system.cache_hierarchy.l2caches.ReadSharedReq.avgMissLatency::processor.cores.core.inst 49653.405099                       # average ReadSharedReq miss latency ((Tick/Count))
system.cache_hierarchy.l2caches.ReadSharedReq.avgMissLatency::processor.cores.core.data 49937.175000                       # average ReadSharedReq miss latency ((Tick/Count))
system.cache_hierarchy.l2caches.ReadSharedReq.avgMissLatency::total 51475.837310                       # average ReadSharedReq miss latency ((Tick/Count))
system.cache_hierarchy.l2caches.ReadSharedReq.mshrHits::cache_hierarchy.l1dcaches.prefetcher            9                       # number of ReadSharedReq MSHR hits (Count)
system.cache_hierarchy.l2caches.ReadSharedReq.mshrHits::total            9                       # number of ReadSharedReq MSHR hits (Count)
system.cache_hierarchy.l2caches.ReadSharedReq.mshrMisses::cache_hierarchy.l1dcaches.prefetcher           19                       # number of ReadSharedReq MSHR misses (Count)
system.cache_hierarchy.l2caches.ReadSharedReq.mshrMisses::processor.cores.core.inst          353                       # number of ReadSharedReq MSHR misses (Count)
system.cache_hierarchy.l2caches.ReadSharedReq.mshrMisses::processor.cores.core.data           80                       # number of ReadSharedReq MSHR misses (Count)
system.cache_hierarchy.l2caches.ReadSharedReq.mshrMisses::total          452                       # number of ReadSharedReq MSHR misses (Count)
system.cache_hierarchy.l2caches.ReadSharedReq.mshrMissLatency::cache_hierarchy.l1dcaches.prefetcher      1768361                       # number of ReadSharedReq MSHR miss ticks (Tick)
system.cache_hierarchy.l2caches.ReadSharedReq.mshrMissLatency::processor.cores.core.inst     17468701                       # number of ReadSharedReq MSHR miss ticks (Tick)
system.cache_hierarchy.l2caches.ReadSharedReq.mshrMissLatency::processor.cores.core.data      3981614                       # number of ReadSharedReq MSHR miss ticks (Tick)
system.cache_hierarchy.l2caches.ReadSharedReq.mshrMissLatency::total     23218676                       # number of ReadSharedReq MSHR miss ticks (Tick)
system.cache_hierarchy.l2caches.ReadSharedReq.mshrMissRate::cache_hierarchy.l1dcaches.prefetcher     0.542857                       # mshr miss rate for ReadSharedReq accesses (Ratio)
system.cache_hierarchy.l2caches.ReadSharedReq.mshrMissRate::processor.cores.core.inst     0.994366                       # mshr miss rate for ReadSharedReq accesses (Ratio)
system.cache_hierarchy.l2caches.ReadSharedReq.mshrMissRate::processor.cores.core.data            1                       # mshr miss rate for ReadSharedReq accesses (Ratio)
system.cache_hierarchy.l2caches.ReadSharedReq.mshrMissRate::total     0.961702                       # mshr miss rate for ReadSharedReq accesses (Ratio)
system.cache_hierarchy.l2caches.ReadSharedReq.avgMshrMissLatency::cache_hierarchy.l1dcaches.prefetcher 93071.631579                       # average ReadSharedReq mshr miss latency ((Tick/Count))
system.cache_hierarchy.l2caches.ReadSharedReq.avgMshrMissLatency::processor.cores.core.inst 49486.405099                       # average ReadSharedReq mshr miss latency ((Tick/Count))
system.cache_hierarchy.l2caches.ReadSharedReq.avgMshrMissLatency::processor.cores.core.data 49770.175000                       # average ReadSharedReq mshr miss latency ((Tick/Count))
system.cache_hierarchy.l2caches.ReadSharedReq.avgMshrMissLatency::total 51368.752212                       # average ReadSharedReq mshr miss latency ((Tick/Count))
system.cache_hierarchy.l2caches.WritebackClean.hits::writebacks           99                       # number of WritebackClean hits (Count)
system.cache_hierarchy.l2caches.WritebackClean.hits::total           99                       # number of WritebackClean hits (Count)
system.cache_hierarchy.l2caches.WritebackClean.accesses::writebacks           99                       # number of WritebackClean accesses(hits+misses) (Count)
system.cache_hierarchy.l2caches.WritebackClean.accesses::total           99                       # number of WritebackClean accesses(hits+misses) (Count)
system.cache_hierarchy.l2caches.power_state.pwrStateResidencyTicks::UNDEFINED     26896686                       # Cumulative time (in ticks) in various power states (Tick)
system.cache_hierarchy.l2caches.prefetcher.demandMshrMisses          513                       # demands not covered by prefetchs (Count)
system.cache_hierarchy.l2caches.prefetcher.pfIssued           42                       # number of hwpf issued (Count)
system.cache_hierarchy.l2caches.prefetcher.pfUseful           16                       # number of useful prefetch (Count)
system.cache_hierarchy.l2caches.prefetcher.pfUsefulButMiss            0                       # number of hit on prefetch but cache block is not in an usable state (Count)
system.cache_hierarchy.l2caches.prefetcher.accuracy     0.380952                       # accuracy of the prefetcher (Count)
system.cache_hierarchy.l2caches.prefetcher.coverage     0.030246                       # coverage brought by this prefetcher (Count)
system.cache_hierarchy.l2caches.prefetcher.pfHitInCache            5                       # number of prefetches hitting in cache (Count)
system.cache_hierarchy.l2caches.prefetcher.pfHitInMSHR            6                       # number of prefetches hitting in a MSHR (Count)
system.cache_hierarchy.l2caches.prefetcher.pfHitInWB            0                       # number of prefetches hit in the Write Buffer (Count)
system.cache_hierarchy.l2caches.prefetcher.pfLate           11                       # number of late prefetches (hitting in cache, MSHR or WB) (Count)
system.cache_hierarchy.l2caches.prefetcher.pfIdentified           80                       # number of prefetch candidates identified (Count)
system.cache_hierarchy.l2caches.prefetcher.pfBufferHit           22                       # number of redundant prefetches already in prefetch queue (Count)
system.cache_hierarchy.l2caches.prefetcher.pfInCache            0                       # number of redundant prefetches already in cache/mshr dropped (Count)
system.cache_hierarchy.l2caches.prefetcher.pfRemovedDemand           11                       # number of prefetches dropped due to a demand for the same address (Count)
system.cache_hierarchy.l2caches.prefetcher.pfRemovedFull            0                       # number of prefetches dropped due to prefetch queue size (Count)
system.cache_hierarchy.l2caches.prefetcher.pfSpanPage           12                       # number of prefetches that crossed the page (Count)
system.cache_hierarchy.l2caches.prefetcher.pfUsefulSpanPage            0                       # number of prefetches that is useful and crossed the page (Count)
system.cache_hierarchy.l2caches.prefetcher.power_state.pwrStateResidencyTicks::UNDEFINED     26896686                       # Cumulative time (in ticks) in various power states (Tick)
system.cache_hierarchy.l2caches.tags.tagsInUse   279.345773                       # Average ticks per tags in use ((Tick/Count))
system.cache_hierarchy.l2caches.tags.totalRefs          661                       # Total number of references to valid blocks. (Count)
system.cache_hierarchy.l2caches.tags.sampledRefs          544                       # Sample count of references to valid blocks. (Count)
system.cache_hierarchy.l2caches.tags.avgRefs     1.215074                       # Average number of references to valid blocks. ((Count/Count))
system.cache_hierarchy.l2caches.tags.warmupTick        67969                       # The tick when the warmup percentage was hit. (Tick)
system.cache_hierarchy.l2caches.tags.occupancies::cache_hierarchy.l1dcaches.prefetcher    11.090291                       # Average occupied blocks per tick, per requestor ((Count/Tick))
system.cache_hierarchy.l2caches.tags.occupancies::cache_hierarchy.l2caches.prefetcher    18.935396                       # Average occupied blocks per tick, per requestor ((Count/Tick))
system.cache_hierarchy.l2caches.tags.occupancies::processor.cores.core.inst   164.828410                       # Average occupied blocks per tick, per requestor ((Count/Tick))
system.cache_hierarchy.l2caches.tags.occupancies::processor.cores.core.data    84.491676                       # Average occupied blocks per tick, per requestor ((Count/Tick))
system.cache_hierarchy.l2caches.tags.avgOccs::cache_hierarchy.l1dcaches.prefetcher     0.002708                       # Average percentage of cache occupancy ((Ratio/Tick))
system.cache_hierarchy.l2caches.tags.avgOccs::cache_hierarchy.l2caches.prefetcher     0.004623                       # Average percentage of cache occupancy ((Ratio/Tick))
system.cache_hierarchy.l2caches.tags.avgOccs::processor.cores.core.inst     0.040241                       # Average percentage of cache occupancy ((Ratio/Tick))
system.cache_hierarchy.l2caches.tags.avgOccs::processor.cores.core.data     0.020628                       # Average percentage of cache occupancy ((Ratio/Tick))
system.cache_hierarchy.l2caches.tags.avgOccs::total     0.068200                       # Average percentage of cache occupancy ((Ratio/Tick))
system.cache_hierarchy.l2caches.tags.occupanciesTaskId::1022           50                       # Occupied blocks per task id (Count)
[...]
system.processor.cores.core.commitStats0.numFpInsts          397                       # Number of float instructions (Count)
system.processor.cores.core.commitStats0.numIntInsts        12749                       # Number of integer instructions (Count)
system.processor.cores.core.commitStats0.numLoadInsts         1269                       # Number of load instructions (Count)
system.processor.cores.core.commitStats0.numStoreInsts         1353                       # Number of store instructions (Count)
system.processor.cores.core.commitStats0.numVecInsts            0                       # Number of vector instructions (Count)
system.processor.cores.core.commitStats0.committedInstType::No_OpClass           26      0.20%      0.20% # Class of committed instruction. (Count)
system.processor.cores.core.commitStats0.committedInstType::IntAlu        10089     77.94%     78.14% # Class of committed instruction. (Count)
system.processor.cores.core.commitStats0.committedInstType::IntMult            4      0.03%     78.18% # Class of committed instruction. (Count)
system.processor.cores.core.commitStats0.committedInstType::IntDiv           21      0.16%     78.34% # Class of committed instruction. (Count)
system.processor.cores.core.commitStats0.committedInstType::FloatAdd            2      0.02%     78.35% # Class of committed instruction. (Count)
system.processor.cores.core.commitStats0.committedInstType::FloatCmp            0      0.00%     78.35% # Class of committed instruction. (Count)
system.processor.cores.core.commitStats0.committedInstType::FloatCvt            0      0.00%     78.35% # Class of committed instruction. (Count)
system.processor.cores.core.commitStats0.committedInstType::FloatMult            0      0.00%     78.35% # Class of committed instruction. (Count)
system.processor.cores.core.commitStats0.committedInstType::FloatMultAcc            0      0.00%     78.35% # Class of committed instruction. (Count)
system.processor.cores.core.commitStats0.committedInstType::FloatDiv            0      0.00%     78.35% # Class of committed instruction. (Count)
system.processor.cores.core.commitStats0.committedInstType::FloatMisc            0      0.00%     78.35% # Class of committed instruction. (Count)
system.processor.cores.core.commitStats0.committedInstType::FloatSqrt            0      0.00%     78.35% # Class of committed instruction. (Count)
system.processor.cores.core.commitStats0.committedInstType::SimdAdd            0      0.00%     78.35% # Class of committed instruction. (Count)
system.processor.cores.core.commitStats0.committedInstType::SimdAddAcc            0      0.00%     78.35% # Class of committed instruction. (Count)
system.processor.cores.core.commitStats0.committedInstType::SimdAlu           74      0.57%     78.92% # Class of committed instruction. (Count)
system.processor.cores.core.commitStats0.committedInstType::SimdCmp            0      0.00%     78.92% # Class of committed instruction. (Count)
system.processor.cores.core.commitStats0.committedInstType::SimdCvt           46      0.36%     79.28% # Class of committed instruction. (Count)
system.processor.cores.core.commitStats0.committedInstType::SimdMisc           60      0.46%     79.74% # Class of committed instruction. (Count)
system.processor.cores.core.commitStats0.committedInstType::SimdMult            0      0.00%     79.74% # Class of committed instruction. (Count)
system.processor.cores.core.commitStats0.committedInstType::SimdMultAcc            0      0.00%     79.74% # Class of committed instruction. (Count)
system.processor.cores.core.commitStats0.committedInstType::SimdMatMultAcc            0      0.00%     79.74% # Class of committed instruction. (Count)
system.processor.cores.core.commitStats0.committedInstType::SimdShift            0      0.00%     79.74% # Class of committed instruction. (Count)
system.processor.cores.core.commitStats0.committedInstType::SimdShiftAcc            0      0.00%     79.74% # Class of committed instruction. (Count)
system.processor.cores.core.commitStats0.committedInstType::SimdDiv            0      0.00%     79.74% # Class of committed instruction. (Count)
system.processor.cores.core.commitStats0.committedInstType::SimdSqrt            0      0.00%     79.74% # Class of committed instruction. (Count)
system.processor.cores.core.commitStats0.committedInstType::SimdFloatAdd            0      0.00%     79.74% # Class of committed instruction. (Count)
system.processor.cores.core.commitStats0.committedInstType::SimdFloatAlu            0      0.00%     79.74% # Class of committed instruction. (Count)
system.processor.cores.core.commitStats0.committedInstType::SimdFloatCmp            0      0.00%     79.74% # Class of committed instruction. (Count)
system.processor.cores.core.commitStats0.committedInstType::SimdFloatCvt            0      0.00%     79.74% # Class of committed instruction. (Count)
system.processor.cores.core.commitStats0.committedInstType::SimdFloatDiv            0      0.00%     79.74% # Class of committed instruction. (Count)
system.processor.cores.core.commitStats0.committedInstType::SimdFloatMisc            0      0.00%     79.74% # Class of committed instruction. (Count)
system.processor.cores.core.commitStats0.committedInstType::SimdFloatMult            0      0.00%     79.74% # Class of committed instruction. (Count)
system.processor.cores.core.commitStats0.committedInstType::SimdFloatMultAcc            0      0.00%     79.74% # Class of committed instruction. (Count)
system.processor.cores.core.commitStats0.committedInstType::SimdFloatMatMultAcc            0      0.00%     79.74% # Class of committed instruction. (Count)
system.processor.cores.core.commitStats0.committedInstType::SimdFloatSqrt            0      0.00%     79.74% # Class of committed instruction. (Count)
system.processor.cores.core.commitStats0.committedInstType::SimdReduceAdd            0      0.00%     79.74% # Class of committed instruction. (Count)
system.processor.cores.core.commitStats0.committedInstType::SimdReduceAlu            0      0.00%     79.74% # Class of committed instruction. (Count)
system.processor.cores.core.commitStats0.committedInstType::SimdReduceCmp            0      0.00%     79.74% # Class of committed instruction. (Count)
system.processor.cores.core.commitStats0.committedInstType::SimdFloatReduceAdd            0      0.00%     79.74% # Class of committed instruction. (Count)
system.processor.cores.core.commitStats0.committedInstType::SimdFloatReduceCmp            0      0.00%     79.74% # Class of committed instruction. (Count)
system.processor.cores.core.commitStats0.committedInstType::SimdAes            0      0.00%     79.74% # Class of committed instruction. (Count)
system.processor.cores.core.commitStats0.committedInstType::SimdAesMix            0      0.00%     79.74% # Class of committed instruction. (Count)
system.processor.cores.core.commitStats0.committedInstType::SimdSha1Hash            0      0.00%     79.74% # Class of committed instruction. (Count)
system.processor.cores.core.commitStats0.committedInstType::SimdSha1Hash2            0      0.00%     79.74% # Class of committed instruction. (Count)
system.processor.cores.core.commitStats0.committedInstType::SimdSha256Hash            0      0.00%     79.74% # Class of committed instruction. (Count)
system.processor.cores.core.commitStats0.committedInstType::SimdSha256Hash2            0      0.00%     79.74% # Class of committed instruction. (Count)
system.processor.cores.core.commitStats0.committedInstType::SimdShaSigma2            0      0.00%     79.74% # Class of committed instruction. (Count)
system.processor.cores.core.commitStats0.committedInstType::SimdShaSigma3            0      0.00%     79.74% # Class of committed instruction. (Count)
system.processor.cores.core.commitStats0.committedInstType::SimdPredAlu            0      0.00%     79.74% # Class of committed instruction. (Count)
system.processor.cores.core.commitStats0.committedInstType::Matrix            0      0.00%     79.74% # Class of committed instruction. (Count)
system.processor.cores.core.commitStats0.committedInstType::MatrixMov            0      0.00%     79.74% # Class of committed instruction. (Count)
system.processor.cores.core.commitStats0.committedInstType::MatrixOP            0      0.00%     79.74% # Class of committed instruction. (Count)
system.processor.cores.core.commitStats0.committedInstType::MemRead         1223      9.45%     89.19% # Class of committed instruction. (Count)
system.processor.cores.core.commitStats0.committedInstType::MemWrite         1192      9.21%     98.40% # Class of committed instruction. (Count)
system.processor.cores.core.commitStats0.committedInstType::FloatMemRead           46      0.36%     98.76% # Class of committed instruction. (Count)
system.processor.cores.core.commitStats0.committedInstType::FloatMemWrite          161      1.24%    100.00% # Class of committed instruction. (Count)
system.processor.cores.core.commitStats0.committedInstType::IprAccess            0      0.00%    100.00% # Class of committed instruction. (Count)
system.processor.cores.core.commitStats0.committedInstType::InstPrefetch            0      0.00%    100.00% # Class of committed instruction. (Count)
system.processor.cores.core.commitStats0.committedInstType::VectorUnitStrideLoad            0      0.00%    100.00% # Class of committed instruction. (Count)
system.processor.cores.core.commitStats0.committedInstType::VectorUnitStrideStore            0      0.00%    100.00% # Class of committed instruction. (Count)
system.processor.cores.core.commitStats0.committedInstType::VectorUnitStrideMaskLoad            0      0.00%    100.00% # Class of committed instruction. (Count)
system.processor.cores.core.commitStats0.committedInstType::VectorUnitStrideMaskStore            0      0.00%    100.00% # Class of committed instruction. (Count)
system.processor.cores.core.commitStats0.committedInstType::VectorStridedLoad            0      0.00%    100.00% # Class of committed instruction. (Count)
system.processor.cores.core.commitStats0.committedInstType::VectorStridedStore            0      0.00%    100.00% # Class of committed instruction. (Count)
system.processor.cores.core.commitStats0.committedInstType::VectorIndexedLoad            0      0.00%    100.00% # Class of committed instruction. (Count)
system.processor.cores.core.commitStats0.committedInstType::VectorIndexedStore            0      0.00%    100.00% # Class of committed instruction. (Count)
system.processor.cores.core.commitStats0.committedInstType::VectorUnitStrideFaultOnlyFirstLoad            0      0.00%    100.00% # Class of committed instruction. (Count)
system.processor.cores.core.commitStats0.committedInstType::VectorWholeRegisterLoad            0      0.00%    100.00% # Class of committed instruction. (Count)
system.processor.cores.core.commitStats0.committedInstType::VectorWholeRegisterStore            0      0.00%    100.00% # Class of committed instruction. (Count)
system.processor.cores.core.commitStats0.committedInstType::VectorIntegerArith            0      0.00%    100.00% # Class of committed instruction. (Count)
system.processor.cores.core.commitStats0.committedInstType::VectorFloatArith            0      0.00%    100.00% # Class of committed instruction. (Count)
system.processor.cores.core.commitStats0.committedInstType::VectorFloatConvert            0      0.00%    100.00% # Class of committed instruction. (Count)
system.processor.cores.core.commitStats0.committedInstType::VectorIntegerReduce            0      0.00%    100.00% # Class of committed instruction. (Count)
system.processor.cores.core.commitStats0.committedInstType::VectorFloatReduce            0      0.00%    100.00% # Class of committed instruction. (Count)
system.processor.cores.core.commitStats0.committedInstType::VectorMisc            0      0.00%    100.00% # Class of committed instruction. (Count)
system.processor.cores.core.commitStats0.committedInstType::VectorIntegerExtension            0      0.00%    100.00% # Class of committed instruction. (Count)
system.processor.cores.core.commitStats0.committedInstType::VectorConfig            0      0.00%    100.00% # Class of committed instruction. (Count)
system.processor.cores.core.commitStats0.committedInstType::total        12944                       # Class of committed instruction. (Count)
system.processor.cores.core.commitStats0.committedControl::IsControl         1479                       # Class of control type instructions committed (Count)
system.processor.cores.core.commitStats0.committedControl::IsDirectControl         1297                       # Class of control type instructions committed (Count)
system.processor.cores.core.commitStats0.committedControl::IsIndirectControl          182                       # Class of control type instructions committed (Count)
system.processor.cores.core.commitStats0.committedControl::IsCondControl         1105                       # Class of control type instructions committed (Count)
system.processor.cores.core.commitStats0.committedControl::IsUncondControl          374                       # Class of control type instructions committed (Count)
system.processor.cores.core.commitStats0.committedControl::IsCall          126                       # Class of control type instructions committed (Count)
system.processor.cores.core.commitStats0.committedControl::IsReturn          121                       # Class of control type instructions committed (Count)
system.processor.cores.core.exec_context.thread_0.numMatAluAccesses            0                       # Number of matrix alu accesses (Count)
system.processor.cores.core.exec_context.thread_0.numCallsReturns          247                       # Number of times a function call or return occured (Count)
system.processor.cores.core.exec_context.thread_0.numMatInsts            0                       # Number of matrix instructions (Count)
system.processor.cores.core.exec_context.thread_0.numIdleCycles     0.005988                       # Number of idle cycles (Cycle)
system.processor.cores.core.exec_context.thread_0.numBusyCycles 161057.994012                       # Number of busy cycles (Cycle)
system.processor.cores.core.exec_context.thread_0.notIdleFraction     1.000000                       # Percentage of non-idle cycles (Ratio)
system.processor.cores.core.exec_context.thread_0.idleFraction     0.000000                       # Percentage of idle cycles (Ratio)
system.processor.cores.core.executeStats0.numInsts            0                       # Number of executed instructions (Count)
system.processor.cores.core.executeStats0.numNop            0                       # Number of nop insts executed (Count)
system.processor.cores.core.executeStats0.numBranches            0                       # Number of branches executed (Count)
system.processor.cores.core.executeStats0.numLoadInsts            0                       # Number of load instructions executed (Count)
system.processor.cores.core.executeStats0.numStoreInsts         2622                       # Number of stores executed (Count)
system.processor.cores.core.executeStats0.instRate            0                       # Inst execution rate ((Count/Cycle))
system.processor.cores.core.executeStats0.numFpAluAccesses          397                       # Number of float alu accesses (Count)
system.processor.cores.core.executeStats0.numFpRegReads          539                       # Number of times the floating registers were read (Count)
system.processor.cores.core.executeStats0.numFpRegWrites          190                       # Number of times the floating registers were written (Count)
system.processor.cores.core.executeStats0.numIntAluAccesses        12749                       # Number of integer alu accesses (Count)
system.processor.cores.core.executeStats0.numIntRegReads        16002                       # Number of times the integer registers were read (Count)
system.processor.cores.core.executeStats0.numIntRegWrites         8841                       # Number of times the integer registers were written (Count)
system.processor.cores.core.executeStats0.numMemRefs         2622                       # Number of memory refs (Count)
system.processor.cores.core.executeStats0.numMiscRegReads         5687                       # Number of times the Misc registers were read (Count)
system.processor.cores.core.executeStats0.numVecAluAccesses            0                       # Number of vector alu accesses (Count)
system.processor.cores.core.executeStats0.numDiscardedOps            0                       # Number of ops (including micro ops) which were discarded before commit (Count)
system.processor.cores.core.fetchStats0.numInsts         6552                       # Number of instructions fetched (thread level) (Count)
system.processor.cores.core.fetchStats0.numOps        12944                       # Number of ops (including micro ops) fetched (thread level) (Count)
system.processor.cores.core.fetchStats0.fetchRate     0.040681                       # Number of inst fetches per cycle ((Count/Cycle))
system.processor.cores.core.fetchStats0.numBranches         1479                       # Number of branches fetched (Count)
system.processor.cores.core.fetchStats0.branchRate     0.009183                       # Number of branch fetches per cycle (Ratio)
system.processor.cores.core.fetchStats0.numFetchSuspends            0                       # Number of times Execute suspended instruction fetching (Count)
system.processor.cores.core.interrupts.clk_domain.clock         2672                       # Clock period in ticks (Tick)
system.processor.cores.core.mmu.dtb.rdAccesses         1272                       # TLB accesses on read requests (Count)
system.processor.cores.core.mmu.dtb.wrAccesses         1353                       # TLB accesses on write requests (Count)
system.processor.cores.core.mmu.dtb.rdMisses           11                       # TLB misses on read requests (Count)
system.processor.cores.core.mmu.dtb.wrMisses           11                       # TLB misses on write requests (Count)
system.processor.cores.core.mmu.dtb.walker.power_state.pwrStateResidencyTicks::UNDEFINED     26896686                       # Cumulative time (in ticks) in various power states (Tick)
system.processor.cores.core.mmu.itb.rdAccesses            0                       # TLB accesses on read requests (Count)
system.processor.cores.core.mmu.itb.wrAccesses         8546                       # TLB accesses on write requests (Count)
system.processor.cores.core.mmu.itb.rdMisses            0                       # TLB misses on read requests (Count)
system.processor.cores.core.mmu.itb.wrMisses           39                       # TLB misses on write requests (Count)
system.processor.cores.core.mmu.itb.walker.power_state.pwrStateResidencyTicks::UNDEFINED     26896686                       # Cumulative time (in ticks) in various power states (Tick)
system.processor.cores.core.power_state.pwrStateResidencyTicks::ON     26896686                       # Cumulative time (in ticks) in various power states (Tick)
system.processor.cores.core.thread_0.numInsts            0                       # Number of Instructions committed (Count)
system.processor.cores.core.thread_0.numOps            0                       # Number of Ops committed (Count)
system.processor.cores.core.thread_0.numMemRefs            0                       # Number of Memory References (Count)
system.processor.cores.core.workload.numSyscalls           11                       # Number of system calls (Count)
system.workload.inst.arm                            0                       # number of arm instructions executed (Count)
system.workload.inst.quiesce                        0                       # number of quiesce instructions executed (Count)

---------- End Simulation Statistics   ----------
