warn: The `get_runtime_isa` function is deprecated. Please migrate away from using this function.
warn: The se.py script is deprecated. It will be removed in future releases of  gem5.
warn: The `get_runtime_isa` function is deprecated. Please migrate away from using this function.
Global frequency set at 1000000000000 ticks per second
warn: No dot file generated. Please install pydot to generate the dot file and pdf.
ab memory dram size: 2147483648
ab memory p. dram size: 2147483648
ab hbm_size size: 268435456
ab memory p. hbm_size size: 268435456
dramsim3 dram size: 2147483648
dramsim3 dram size: 2147483648
ab memory dram size: 2147483648
ab memory p. dram size: 2147483648
ab hbm_size size: 268435456
ab memory p. hbm_size size: 268435456
dramsim3 dram size: 2147483648
dramsim3 dram size: 2147483648
rt params memory dram size: 2147483648
rt params hbm_size size: 268435456
src/base/statistics.hh:279: warn: One of the stats is a legacy stat. Legacy stat is a stat that does not belong to any statistics::Group. Legacy stat is deprecated.
system.remote_gdb: Listening for connections on port 7000
      0: system.remappingtable: send Range Change...
      0: system.remappingtable: send Range Change...
gem5 Simulator System.  https://www.gem5.org
gem5 is copyrighted software; use the --copyright option for details.

gem5 version 23.0.1.0
gem5 compiled May 17 2024 00:07:00
gem5 started May 17 2024 00:10:25
gem5 executing on node14, pid 43415
command line: build/X86/gem5.opt -d simplese/milc --debug-flags=RemappingTable configs/example/dp_rt.py --cmd=/home/chenrc/rtcahce_24.5.14/tests/test-progs/hello/bin/x86/linux/hello --cpu-type=X86O3CPU --l1d_size=64kB --l1i_size=16kB --l2_size=256kB --caches --l2cache --maxinsts=1000000000 --flat-mem true

Start dispatcher_rt test

**** REAL SIMULATION ****
src/sim/simulate.cc:194: info: Entering event queue @ 0.  Starting simulation...
  11500: system.remappingtable: RemappingTable module try to put the addr to remapcache 0x180
  11500: system.remappingtable.dp_side_port: RemappingTable module sending req to dp for addr 0x180
  52490: system.remappingtable: RemappingTable module access dp resp for addr 0x180
  52490: system.remappingtable.bus_side_port: RemappingTable module send to bus for addr 0x180
  79500: system.remappingtable.dp_side_port: RemappingTable module sending req to dp for addr 0x1c0
  81000: system.remappingtable: RemappingTable module try to put the addr to remapcache 0x94dc0
  81000: system.remappingtable.dp_side_port: RemappingTable module sending req to dp for addr 0x94dc0
  82000: system.remappingtable: RemappingTable module try to put the addr to remapcache 0x9a00
  82000: system.remappingtable.dp_side_port: RemappingTable module sending req to dp for addr 0x9a00
 106440: system.remappingtable: RemappingTable module access dp resp for addr 0x1c0
 106440: system.remappingtable.bus_side_port: RemappingTable module send to bus for addr 0x1c0
 121710: system.remappingtable: RemappingTable module access dp resp for addr 0x94dc0
 121710: system.remappingtable.bus_side_port: RemappingTable module send to bus for addr 0x94dc0
 121710: system.remappingtable: RemappingTable module access dp resp for addr 0x9a00
 127000: system.remappingtable.bus_side_port: RemappingTable module recv dp resp retry...
 127000: system.remappingtable.dp_side_port: RemappingTable module sending Dp retry resp for -1
 127000: system.remappingtable: RemappingTable module access dp resp for addr 0x9a00
 127000: system.remappingtable.bus_side_port: RemappingTable module send to bus for addr 0x9a00
 153500: system.remappingtable.dp_side_port: RemappingTable module sending req to dp for addr 0x9a40
 159500: system.remappingtable.dp_side_port: RemappingTable module sending req to dp for addr 0x94d80
 180310: system.remappingtable: RemappingTable module access dp resp for addr 0x9a40
 180310: system.remappingtable.bus_side_port: RemappingTable module send to bus for addr 0x9a40
 180310: system.remappingtable: RemappingTable module access dp resp for addr 0x94d80
 186000: system.remappingtable.bus_side_port: RemappingTable module recv dp resp retry...
 186000: system.remappingtable.dp_side_port: RemappingTable module sending Dp retry resp for -1
 186000: system.remappingtable: RemappingTable module access dp resp for addr 0x94d80
 186000: system.remappingtable.bus_side_port: RemappingTable module send to bus for addr 0x94d80
 207500: system.remappingtable.dp_side_port: RemappingTable module sending req to dp for addr 0x9a80
 209500: system.remappingtable.dp_side_port: RemappingTable module sending req to dp for addr 0x94e00
 213000: system.remappingtable.dp_side_port: RemappingTable module sending req to dp for addr 0x94bc0
 235090: system.remappingtable: RemappingTable module access dp resp for addr 0x9a80
 235090: system.remappingtable.bus_side_port: RemappingTable module send to bus for addr 0x9a80
 235090: system.remappingtable: RemappingTable module access dp resp for addr 0x94e00
 241000: system.remappingtable.bus_side_port: RemappingTable module recv dp resp retry...
 241000: system.remappingtable.dp_side_port: RemappingTable module sending Dp retry resp for -1
 241000: system.remappingtable: RemappingTable module access dp resp for addr 0x94e00
 241000: system.remappingtable.bus_side_port: RemappingTable module send to bus for addr 0x94e00
 241000: system.remappingtable: RemappingTable module access dp resp for addr 0x94bc0
 246000: system.remappingtable.bus_side_port: RemappingTable module recv dp resp retry...
 246000: system.remappingtable.dp_side_port: RemappingTable module sending Dp retry resp for -1
 246000: system.remappingtable: RemappingTable module access dp resp for addr 0x94bc0
 246000: system.remappingtable.bus_side_port: RemappingTable module send to bus for addr 0x94bc0
 262500: system.remappingtable: RemappingTable module try to put the addr to remapcache 0x15b00
 262500: system.remappingtable.dp_side_port: RemappingTable module sending req to dp for addr 0x15b00
 272000: system.remappingtable.dp_side_port: RemappingTable module sending req to dp for addr 0x94b80
 318090: system.remappingtable: RemappingTable module access dp resp for addr 0x15b00
 318090: system.remappingtable.bus_side_port: RemappingTable module send to bus for addr 0x15b00
 345500: system.remappingtable.dp_side_port: RemappingTable module sending req to dp for addr 0x15b40
 348500: system.remappingtable: RemappingTable module try to put the addr to remapcache 0x5ec40
 348500: system.remappingtable.dp_side_port: RemappingTable module sending req to dp for addr 0x5ec40
 364070: system.remappingtable: RemappingTable module access dp resp for addr 0x94b80
 364070: system.remappingtable.bus_side_port: RemappingTable module send to bus for addr 0x94b80
 389470: system.remappingtable: RemappingTable module access dp resp for addr 0x5ec40
 389470: system.remappingtable.bus_side_port: RemappingTable module send to bus for addr 0x5ec40
 390000: system.remappingtable: RemappingTable module try to put the addr to remapcache 0x80780
 390000: system.remappingtable.dp_side_port: RemappingTable module sending req to dp for addr 0x80780
 411050: system.remappingtable: RemappingTable module access dp resp for addr 0x15b40
 411050: system.remappingtable.bus_side_port: RemappingTable module send to bus for addr 0x15b40
 440000: system.remappingtable.dp_side_port: RemappingTable module sending req to dp for addr 0x9ac0
 441000: system.remappingtable: RemappingTable module try to put the addr to remapcache 0x13280
 441000: system.remappingtable.dp_side_port: RemappingTable module sending req to dp for addr 0x13280
 444580: system.remappingtable: RemappingTable module access dp resp for addr 0x80780
 444580: system.remappingtable.bus_side_port: RemappingTable module send to bus for addr 0x80780
 449500: system.remappingtable.dp_side_port: RemappingTable module sending req to dp for addr 0x5ebc0
 459500: system.remappingtable.dp_side_port: RemappingTable module sending req to dp for addr 0x5eb80
 461000: system.remappingtable.dp_side_port: RemappingTable module sending req to dp for addr 0x94e40
 466990: system.remappingtable: RemappingTable module access dp resp for addr 0x9ac0
 466990: system.remappingtable.bus_side_port: RemappingTable module send to bus for addr 0x9ac0
 470000: system.remappingtable: RemappingTable module try to put the addr to remapcache 0x92dc0
 470000: system.remappingtable.dp_side_port: RemappingTable module sending req to dp for addr 0x92dc0
 476620: system.remappingtable: RemappingTable module access dp resp for addr 0x5ebc0
 476620: system.remappingtable.bus_side_port: RemappingTable module send to bus for addr 0x5ebc0
 476620: system.remappingtable: RemappingTable module access dp resp for addr 0x13280
 482000: system.remappingtable.bus_side_port: RemappingTable module recv dp resp retry...
 482000: system.remappingtable.dp_side_port: RemappingTable module sending Dp retry resp for -1
 482000: system.remappingtable: RemappingTable module access dp resp for addr 0x13280
 482000: system.remappingtable.bus_side_port: RemappingTable module send to bus for addr 0x13280
 482000: system.remappingtable: RemappingTable module access dp resp for addr 0x5eb80
 487000: system.remappingtable.bus_side_port: RemappingTable module recv dp resp retry...
 487000: system.remappingtable.dp_side_port: RemappingTable module sending Dp retry resp for -1
 487000: system.remappingtable: RemappingTable module access dp resp for addr 0x5eb80
 487000: system.remappingtable.bus_side_port: RemappingTable module send to bus for addr 0x5eb80
 505000: system.remappingtable.dp_side_port: RemappingTable module sending req to dp for addr 0x15b80
 515960: system.remappingtable: RemappingTable module access dp resp for addr 0x94e40
 515960: system.remappingtable.bus_side_port: RemappingTable module send to bus for addr 0x94e40
 528410: system.remappingtable: RemappingTable module access dp resp for addr 0x92dc0
 528410: system.remappingtable.bus_side_port: RemappingTable module send to bus for addr 0x92dc0
 554000: system.remappingtable: RemappingTable module try to put the addr to remapcache 0x7f9c0
 554000: system.remappingtable.dp_side_port: RemappingTable module sending req to dp for addr 0x7f9c0
 562440: system.remappingtable: RemappingTable module access dp resp for addr 0x15b80
 562440: system.remappingtable.bus_side_port: RemappingTable module send to bus for addr 0x15b80
 594810: system.remappingtable: RemappingTable module access dp resp for addr 0x7f9c0
 594810: system.remappingtable.bus_side_port: RemappingTable module send to bus for addr 0x7f9c0
 601500: system.remappingtable.dp_side_port: RemappingTable module sending req to dp for addr 0x15bc0
 621000: system.remappingtable.dp_side_port: RemappingTable module sending req to dp for addr 0x92e40
 628510: system.remappingtable: RemappingTable module access dp resp for addr 0x15bc0
 628510: system.remappingtable.bus_side_port: RemappingTable module send to bus for addr 0x15bc0
 647930: system.remappingtable: RemappingTable module access dp resp for addr 0x92e40
 647930: system.remappingtable.bus_side_port: RemappingTable module send to bus for addr 0x92e40
 654000: system.remappingtable.dp_side_port: RemappingTable module sending req to dp for addr 0x15c00
 673000: system.remappingtable: RemappingTable module try to put the addr to remapcache 0x93540
 673000: system.remappingtable.dp_side_port: RemappingTable module sending req to dp for addr 0x93540
 680300: system.remappingtable: RemappingTable module access dp resp for addr 0x15c00
 680300: system.remappingtable.bus_side_port: RemappingTable module send to bus for addr 0x15c00
 699390: system.remappingtable: RemappingTable module access dp resp for addr 0x93540
 699390: system.remappingtable.bus_side_port: RemappingTable module send to bus for addr 0x93540
 726000: system.remappingtable.dp_side_port: RemappingTable module sending req to dp for addr 0x934c0
 736500: system.remappingtable.dp_side_port: RemappingTable module sending req to dp for addr 0x15c40
 752510: system.remappingtable: RemappingTable module access dp resp for addr 0x934c0
 752510: system.remappingtable.bus_side_port: RemappingTable module send to bus for addr 0x934c0
 763800: system.remappingtable: RemappingTable module access dp resp for addr 0x15c40
 763800: system.remappingtable.bus_side_port: RemappingTable module send to bus for addr 0x15c40
 768000: system.remappingtable.dp_side_port: RemappingTable module sending req to dp for addr 0x94e80
 779000: system.remappingtable.dp_side_port: RemappingTable module sending req to dp for addr 0x93500
 799000: system.remappingtable.dp_side_port: RemappingTable module sending req to dp for addr 0x94c40
 800500: system.remappingtable.dp_side_port: RemappingTable module sending req to dp for addr 0x9b80
 805630: system.remappingtable: RemappingTable module access dp resp for addr 0x93500
 805630: system.remappingtable.bus_side_port: RemappingTable module send to bus for addr 0x93500
 823060: system.remappingtable: RemappingTable module access dp resp for addr 0x94e80
 823060: system.remappingtable.bus_side_port: RemappingTable module send to bus for addr 0x94e80
 823060: system.remappingtable: RemappingTable module access dp resp for addr 0x9b80
 829000: system.remappingtable.bus_side_port: RemappingTable module recv dp resp retry...
 829000: system.remappingtable.dp_side_port: RemappingTable module sending Dp retry resp for -1
 829000: system.remappingtable: RemappingTable module access dp resp for addr 0x9b80
 829000: system.remappingtable.bus_side_port: RemappingTable module send to bus for addr 0x9b80
 829000: system.remappingtable: RemappingTable module access dp resp for addr 0x94c40
 834000: system.remappingtable.bus_side_port: RemappingTable module recv dp resp retry...
 834000: system.remappingtable.dp_side_port: RemappingTable module sending Dp retry resp for -1
 834000: system.remappingtable: RemappingTable module access dp resp for addr 0x94c40
 834000: system.remappingtable.bus_side_port: RemappingTable module send to bus for addr 0x94c40
 861000: system.remappingtable.dp_side_port: RemappingTable module sending req to dp for addr 0x9bc0
 870000: system.remappingtable.dp_side_port: RemappingTable module sending req to dp for addr 0x13380
 887800: system.remappingtable: RemappingTable module access dp resp for addr 0x9bc0
 887800: system.remappingtable.bus_side_port: RemappingTable module send to bus for addr 0x9bc0
 909000: system.remappingtable.dp_side_port: RemappingTable module sending req to dp for addr 0x94ec0
 925150: system.remappingtable: RemappingTable module access dp resp for addr 0x13380
 925150: system.remappingtable.bus_side_port: RemappingTable module send to bus for addr 0x13380
 935940: system.remappingtable: RemappingTable module access dp resp for addr 0x94ec0
 935940: system.remappingtable.bus_side_port: RemappingTable module send to bus for addr 0x94ec0
 956500: system.remappingtable.dp_side_port: RemappingTable module sending req to dp for addr 0x13440
 983750: system.remappingtable: RemappingTable module access dp resp for addr 0x13440
 983750: system.remappingtable.bus_side_port: RemappingTable module send to bus for addr 0x13440
1034500: system.remappingtable.dp_side_port: RemappingTable module sending req to dp for addr 0x5ec00
1036500: system.remappingtable.dp_side_port: RemappingTable module sending req to dp for addr 0x94f00
1048000: system.remappingtable.dp_side_port: RemappingTable module sending req to dp for addr 0x94f40
1061770: system.remappingtable: RemappingTable module access dp resp for addr 0x5ec00
1061770: system.remappingtable.bus_side_port: RemappingTable module send to bus for addr 0x5ec00
1061770: system.remappingtable: RemappingTable module access dp resp for addr 0x94f00
1067000: system.remappingtable.bus_side_port: RemappingTable module recv dp resp retry...
1067000: system.remappingtable.dp_side_port: RemappingTable module sending Dp retry resp for -1
1067000: system.remappingtable: RemappingTable module access dp resp for addr 0x94f00
1067000: system.remappingtable.bus_side_port: RemappingTable module send to bus for addr 0x94f00
1067000: system.remappingtable: RemappingTable module access dp resp for addr 0x94f40
1072000: system.remappingtable.bus_side_port: RemappingTable module recv dp resp retry...
1072000: system.remappingtable.dp_side_port: RemappingTable module sending Dp retry resp for -1
1072000: system.remappingtable: RemappingTable module access dp resp for addr 0x94f40
1072000: system.remappingtable.bus_side_port: RemappingTable module send to bus for addr 0x94f40
1089500: system.remappingtable.dp_side_port: RemappingTable module sending req to dp for addr 0x93580
1144770: system.remappingtable: RemappingTable module access dp resp for addr 0x93580
1144770: system.remappingtable.bus_side_port: RemappingTable module send to bus for addr 0x93580
1152000: system.remappingtable.dp_side_port: RemappingTable module sending req to dp for addr 0x13480
1170000: system.remappingtable.dp_side_port: RemappingTable module sending req to dp for addr 0x7fa00
1196560: system.remappingtable: RemappingTable module access dp resp for addr 0x7fa00
1196560: system.remappingtable.bus_side_port: RemappingTable module send to bus for addr 0x7fa00
1206520: system.remappingtable: RemappingTable module access dp resp for addr 0x13480
1206520: system.remappingtable.bus_side_port: RemappingTable module send to bus for addr 0x13480
1237000: system.remappingtable.dp_side_port: RemappingTable module sending req to dp for addr 0x9b00
1263790: system.remappingtable: RemappingTable module access dp resp for addr 0x9b00
1263790: system.remappingtable.bus_side_port: RemappingTable module send to bus for addr 0x9b00
1291000: system.remappingtable.dp_side_port: RemappingTable module sending req to dp for addr 0x9b40
1292500: system.remappingtable.dp_side_port: RemappingTable module sending req to dp for addr 0x9fc0
1317740: system.remappingtable: RemappingTable module access dp resp for addr 0x9b40
1317740: system.remappingtable.bus_side_port: RemappingTable module send to bus for addr 0x9b40
1317740: system.remappingtable: RemappingTable module access dp resp for addr 0x9fc0
1323000: system.remappingtable.bus_side_port: RemappingTable module recv dp resp retry...
1323000: system.remappingtable.dp_side_port: RemappingTable module sending Dp retry resp for -1
1323000: system.remappingtable: RemappingTable module access dp resp for addr 0x9fc0
1323000: system.remappingtable.bus_side_port: RemappingTable module send to bus for addr 0x9fc0
1349000: system.remappingtable: RemappingTable module try to put the addr to remapcache 0xa000
1349000: system.remappingtable.dp_side_port: RemappingTable module sending req to dp for addr 0xa000
1350000: system.remappingtable.dp_side_port: RemappingTable module sending req to dp for addr 0x9d00
1376670: system.remappingtable: RemappingTable module access dp resp for addr 0x9d00
1376670: system.remappingtable.bus_side_port: RemappingTable module send to bus for addr 0x9d00
1389950: system.remappingtable: RemappingTable module access dp resp for addr 0xa000
1389950: system.remappingtable.bus_side_port: RemappingTable module send to bus for addr 0xa000
1402500: system.remappingtable.dp_side_port: RemappingTable module sending req to dp for addr 0x9d40
1409500: system.remappingtable.dp_side_port: RemappingTable module sending req to dp for addr 0x94b40
1429460: system.remappingtable: RemappingTable module access dp resp for addr 0x9d40
1429460: system.remappingtable.bus_side_port: RemappingTable module send to bus for addr 0x9d40
1429460: system.remappingtable: RemappingTable module access dp resp for addr 0x94b40
1435000: system.remappingtable.bus_side_port: RemappingTable module recv dp resp retry...
1435000: system.remappingtable.dp_side_port: RemappingTable module sending Dp retry resp for -1
1435000: system.remappingtable: RemappingTable module access dp resp for addr 0x94b40
1435000: system.remappingtable.bus_side_port: RemappingTable module send to bus for addr 0x94b40
1456500: system.remappingtable.dp_side_port: RemappingTable module sending req to dp for addr 0x9d80
1458500: system.remappingtable.dp_side_port: RemappingTable module sending req to dp for addr 0x40
1483410: system.remappingtable: RemappingTable module access dp resp for addr 0x9d80
1483410: system.remappingtable.bus_side_port: RemappingTable module send to bus for addr 0x9d80
1514120: system.remappingtable: RemappingTable module access dp resp for addr 0x40
1514120: system.remappingtable.bus_side_port: RemappingTable module send to bus for addr 0x40
1519500: system.remappingtable.dp_side_port: RemappingTable module sending req to dp for addr 0x80
1527000: system.remappingtable.dp_side_port: RemappingTable module sending req to dp for addr 0xc0
1534000: system.remappingtable.dp_side_port: RemappingTable module sending req to dp for addr 0x100
1537500: system.remappingtable.dp_side_port: RemappingTable module sending req to dp for addr 0xaa80
1546490: system.remappingtable: RemappingTable module access dp resp for addr 0x80
1546490: system.remappingtable.bus_side_port: RemappingTable module send to bus for addr 0x80
1546490: system.remappingtable: RemappingTable module access dp resp for addr 0xc0
1547500: system.remappingtable: RemappingTable module try to put the addr to remapcache 0x16240
1547500: system.remappingtable.dp_side_port: RemappingTable module sending req to dp for addr 0x16240
1552000: system.remappingtable.bus_side_port: RemappingTable module recv dp resp retry...
1552000: system.remappingtable.dp_side_port: RemappingTable module sending Dp retry resp for -1
1552000: system.remappingtable: RemappingTable module access dp resp for addr 0xc0
1552000: system.remappingtable.bus_side_port: RemappingTable module send to bus for addr 0xc0
1560930: system.remappingtable: RemappingTable module access dp resp for addr 0x100
1560930: system.remappingtable.bus_side_port: RemappingTable module send to bus for addr 0x100
1560930: system.remappingtable: RemappingTable module access dp resp for addr 0xaa80
1566000: system.remappingtable.bus_side_port: RemappingTable module recv dp resp retry...
1566000: system.remappingtable.dp_side_port: RemappingTable module sending Dp retry resp for -1
1566000: system.remappingtable: RemappingTable module access dp resp for addr 0xaa80
1566000: system.remappingtable.bus_side_port: RemappingTable module send to bus for addr 0xaa80
1588820: system.remappingtable: RemappingTable module access dp resp for addr 0x16240
1588820: system.remappingtable.bus_side_port: RemappingTable module send to bus for addr 0x16240
1614000: system.remappingtable.dp_side_port: RemappingTable module sending req to dp for addr 0x16280
1615500: system.remappingtable.dp_side_port: RemappingTable module sending req to dp for addr 0x161c0
1640610: system.remappingtable: RemappingTable module access dp resp for addr 0x16280
1640610: system.remappingtable.bus_side_port: RemappingTable module send to bus for addr 0x16280
1640610: system.remappingtable: RemappingTable module access dp resp for addr 0x161c0
1646000: system.remappingtable.bus_side_port: RemappingTable module recv dp resp retry...
1646000: system.remappingtable.dp_side_port: RemappingTable module sending Dp retry resp for -1
1646000: system.remappingtable: RemappingTable module access dp resp for addr 0x161c0
1646000: system.remappingtable.bus_side_port: RemappingTable module send to bus for addr 0x161c0
1671500: system.remappingtable.dp_side_port: RemappingTable module sending req to dp for addr 0x16200
1698380: system.remappingtable: RemappingTable module access dp resp for addr 0x16200
1698380: system.remappingtable.bus_side_port: RemappingTable module send to bus for addr 0x16200
1727000: system.remappingtable.dp_side_port: RemappingTable module sending req to dp for addr 0x16140
1737000: system.remappingtable: RemappingTable module try to put the addr to remapcache 0x19e80
1737000: system.remappingtable.dp_side_port: RemappingTable module sending req to dp for addr 0x19e80
1738500: system.remappingtable.dp_side_port: RemappingTable module sending req to dp for addr 0x809c0
1753490: system.remappingtable: RemappingTable module access dp resp for addr 0x16140
1753490: system.remappingtable.bus_side_port: RemappingTable module send to bus for addr 0x16140
1777560: system.remappingtable: RemappingTable module access dp resp for addr 0x19e80
1777560: system.remappingtable.bus_side_port: RemappingTable module send to bus for addr 0x19e80
1793830: system.remappingtable: RemappingTable module access dp resp for addr 0x809c0
1793830: system.remappingtable.bus_side_port: RemappingTable module send to bus for addr 0x809c0
1803000: system.remappingtable.dp_side_port: RemappingTable module sending req to dp for addr 0x19ec0
1829850: system.remappingtable: RemappingTable module access dp resp for addr 0x19ec0
1829850: system.remappingtable.bus_side_port: RemappingTable module send to bus for addr 0x19ec0
1873500: system.remappingtable.dp_side_port: RemappingTable module sending req to dp for addr 0x16180
1900900: system.remappingtable: RemappingTable module access dp resp for addr 0x16180
1900900: system.remappingtable.bus_side_port: RemappingTable module send to bus for addr 0x16180
1931500: system.remappingtable.dp_side_port: RemappingTable module sending req to dp for addr 0x15c80
1987220: system.remappingtable: RemappingTable module access dp resp for addr 0x15c80
1987220: system.remappingtable.bus_side_port: RemappingTable module send to bus for addr 0x15c80
2015000: system.remappingtable.dp_side_port: RemappingTable module sending req to dp for addr 0x13800
2021000: system.remappingtable.dp_side_port: RemappingTable module sending req to dp for addr 0x15cc0
2022000: system.remappingtable: RemappingTable module try to put the addr to remapcache 0x1a300
2022000: system.remappingtable.dp_side_port: RemappingTable module sending req to dp for addr 0x1a300
2041500: system.remappingtable: RemappingTable module access dp resp for addr 0x13800
2041500: system.remappingtable.bus_side_port: RemappingTable module send to bus for addr 0x13800
2041500: system.remappingtable: RemappingTable module access dp resp for addr 0x15cc0
2047000: system.remappingtable.bus_side_port: RemappingTable module recv dp resp retry...
2047000: system.remappingtable.dp_side_port: RemappingTable module sending Dp retry resp for -1
2047000: system.remappingtable: RemappingTable module access dp resp for addr 0x15cc0
2047000: system.remappingtable.bus_side_port: RemappingTable module send to bus for addr 0x15cc0
2063080: system.remappingtable: RemappingTable module access dp resp for addr 0x1a300
2063080: system.remappingtable.bus_side_port: RemappingTable module send to bus for addr 0x1a300
2089000: system.remappingtable.dp_side_port: RemappingTable module sending req to dp for addr 0x1a340
2095500: system.remappingtable.dp_side_port: RemappingTable module sending req to dp for addr 0x94b00
2115370: system.remappingtable: RemappingTable module access dp resp for addr 0x1a340
2115370: system.remappingtable.bus_side_port: RemappingTable module send to bus for addr 0x1a340
2142500: system.remappingtable: RemappingTable module try to put the addr to remapcache 0x11d00
2142500: system.remappingtable.dp_side_port: RemappingTable module sending req to dp for addr 0x11d00
2150730: system.remappingtable: RemappingTable module access dp resp for addr 0x94b00
2150730: system.remappingtable.bus_side_port: RemappingTable module send to bus for addr 0x94b00
2183930: system.remappingtable: RemappingTable module access dp resp for addr 0x11d00
2183930: system.remappingtable.bus_side_port: RemappingTable module send to bus for addr 0x11d00
2210000: system.remappingtable.dp_side_port: RemappingTable module sending req to dp for addr 0x11d40
2212500: system.remappingtable.dp_side_port: RemappingTable module sending req to dp for addr 0x5ed40
2236550: system.remappingtable: RemappingTable module access dp resp for addr 0x11d40
2236550: system.remappingtable.bus_side_port: RemappingTable module send to bus for addr 0x11d40
2236550: system.remappingtable: RemappingTable module access dp resp for addr 0x5ed40
2242000: system.remappingtable.bus_side_port: RemappingTable module recv dp resp retry...
2242000: system.remappingtable.dp_side_port: RemappingTable module sending Dp retry resp for -1
2242000: system.remappingtable: RemappingTable module access dp resp for addr 0x5ed40
2242000: system.remappingtable.bus_side_port: RemappingTable module send to bus for addr 0x5ed40
2263000: system.remappingtable.dp_side_port: RemappingTable module sending req to dp for addr 0x11d80
2289670: system.remappingtable: RemappingTable module access dp resp for addr 0x11d80
2289670: system.remappingtable.bus_side_port: RemappingTable module send to bus for addr 0x11d80
2312500: system.remappingtable: RemappingTable module try to put the addr to remapcache 0x12040
2312500: system.remappingtable.dp_side_port: RemappingTable module sending req to dp for addr 0x12040
2339970: system.remappingtable: RemappingTable module access dp resp for addr 0x12040
2339970: system.remappingtable.bus_side_port: RemappingTable module send to bus for addr 0x12040
2365500: system.remappingtable.dp_side_port: RemappingTable module sending req to dp for addr 0x12080
2393090: system.remappingtable: RemappingTable module access dp resp for addr 0x12080
2393090: system.remappingtable.bus_side_port: RemappingTable module send to bus for addr 0x12080
2428000: system.remappingtable.dp_side_port: RemappingTable module sending req to dp for addr 0x1a380
2454840: system.remappingtable: RemappingTable module access dp resp for addr 0x1a380
2454840: system.remappingtable.bus_side_port: RemappingTable module send to bus for addr 0x1a380
2482000: system.remappingtable.dp_side_port: RemappingTable module sending req to dp for addr 0x1a3c0
2508790: system.remappingtable: RemappingTable module access dp resp for addr 0x1a3c0
2508790: system.remappingtable.bus_side_port: RemappingTable module send to bus for addr 0x1a3c0
2537500: system.remappingtable.dp_side_port: RemappingTable module sending req to dp for addr 0x1a400
2539000: system.remappingtable: RemappingTable module try to put the addr to remapcache 0x2a500
2539000: system.remappingtable.dp_side_port: RemappingTable module sending req to dp for addr 0x2a500
2546500: system.remappingtable: RemappingTable module try to put the addr to remapcache 0x71700
2546500: system.remappingtable.dp_side_port: RemappingTable module sending req to dp for addr 0x71700
2564900: system.remappingtable: RemappingTable module access dp resp for addr 0x1a400
2564900: system.remappingtable.bus_side_port: RemappingTable module send to bus for addr 0x1a400
2580170: system.remappingtable: RemappingTable module access dp resp for addr 0x2a500
2580170: system.remappingtable.bus_side_port: RemappingTable module send to bus for addr 0x2a500
2580170: system.remappingtable: RemappingTable module access dp resp for addr 0x71700
2586000: system.remappingtable.bus_side_port: RemappingTable module recv dp resp retry...
2586000: system.remappingtable.dp_side_port: RemappingTable module sending Dp retry resp for -1
2586000: system.remappingtable: RemappingTable module access dp resp for addr 0x71700
2586000: system.remappingtable.bus_side_port: RemappingTable module send to bus for addr 0x71700
2640000: system.remappingtable.dp_side_port: RemappingTable module sending req to dp for addr 0x11dc0
2656500: system.remappingtable: RemappingTable module try to put the addr to remapcache 0x32cc0
2656500: system.remappingtable.dp_side_port: RemappingTable module sending req to dp for addr 0x32cc0
2666490: system.remappingtable: RemappingTable module access dp resp for addr 0x11dc0
2666490: system.remappingtable.bus_side_port: RemappingTable module send to bus for addr 0x11dc0
2697700: system.remappingtable: RemappingTable module access dp resp for addr 0x32cc0
2697700: system.remappingtable.bus_side_port: RemappingTable module send to bus for addr 0x32cc0
2723000: system.remappingtable.dp_side_port: RemappingTable module sending req to dp for addr 0x32d00
2749490: system.remappingtable: RemappingTable module access dp resp for addr 0x32d00
2749490: system.remappingtable.bus_side_port: RemappingTable module send to bus for addr 0x32d00
2777000: system.remappingtable.dp_side_port: RemappingTable module sending req to dp for addr 0x15f80
2778000: system.remappingtable.dp_side_port: RemappingTable module sending req to dp for addr 0x93480
2831660: system.remappingtable: RemappingTable module access dp resp for addr 0x15f80
2831660: system.remappingtable.bus_side_port: RemappingTable module send to bus for addr 0x15f80
2831660: system.remappingtable: RemappingTable module access dp resp for addr 0x93480
2837000: system.remappingtable.bus_side_port: RemappingTable module recv dp resp retry...
2837000: system.remappingtable.dp_side_port: RemappingTable module sending Dp retry resp for -1
2837000: system.remappingtable: RemappingTable module access dp resp for addr 0x93480
2837000: system.remappingtable.bus_side_port: RemappingTable module send to bus for addr 0x93480
2859000: system.remappingtable.dp_side_port: RemappingTable module sending req to dp for addr 0x32d40
2860000: system.remappingtable: RemappingTable module try to put the addr to remapcache 0xf940
2860000: system.remappingtable.dp_side_port: RemappingTable module sending req to dp for addr 0xf940
2865000: system.remappingtable.dp_side_port: RemappingTable module sending req to dp for addr 0x92e80
2885610: system.remappingtable: RemappingTable module access dp resp for addr 0x32d40
2885610: system.remappingtable.bus_side_port: RemappingTable module send to bus for addr 0x32d40
2885610: system.remappingtable: RemappingTable module access dp resp for addr 0x92e80
2891000: system.remappingtable.bus_side_port: RemappingTable module recv dp resp retry...
2891000: system.remappingtable.dp_side_port: RemappingTable module sending Dp retry resp for -1
2891000: system.remappingtable: RemappingTable module access dp resp for addr 0x92e80
2891000: system.remappingtable.bus_side_port: RemappingTable module send to bus for addr 0x92e80
2900550: system.remappingtable: RemappingTable module access dp resp for addr 0xf940
2900550: system.remappingtable.bus_side_port: RemappingTable module send to bus for addr 0xf940
2926000: system.remappingtable.dp_side_port: RemappingTable module sending req to dp for addr 0xf980
2952840: system.remappingtable: RemappingTable module access dp resp for addr 0xf980
2952840: system.remappingtable.bus_side_port: RemappingTable module send to bus for addr 0xf980
2979000: system.remappingtable.dp_side_port: RemappingTable module sending req to dp for addr 0xf9c0
2981000: system.remappingtable.dp_side_port: RemappingTable module sending req to dp for addr 0x806c0
2984000: system.remappingtable.dp_side_port: RemappingTable module sending req to dp for addr 0xfa00
3005960: system.remappingtable: RemappingTable module access dp resp for addr 0xf9c0
3005960: system.remappingtable.bus_side_port: RemappingTable module send to bus for addr 0xf9c0
3005960: system.remappingtable: RemappingTable module access dp resp for addr 0x806c0
3011000: system.remappingtable.bus_side_port: RemappingTable module recv dp resp retry...
3011000: system.remappingtable.dp_side_port: RemappingTable module sending Dp retry resp for -1
3011000: system.remappingtable: RemappingTable module access dp resp for addr 0x806c0
3011000: system.remappingtable.bus_side_port: RemappingTable module send to bus for addr 0x806c0
3011000: system.remappingtable: RemappingTable module access dp resp for addr 0xfa00
3016000: system.remappingtable.bus_side_port: RemappingTable module recv dp resp retry...
3016000: system.remappingtable.dp_side_port: RemappingTable module sending Dp retry resp for -1
3016000: system.remappingtable: RemappingTable module access dp resp for addr 0xfa00
3016000: system.remappingtable.bus_side_port: RemappingTable module send to bus for addr 0xfa00
3038500: system.remappingtable: RemappingTable module try to put the addr to remapcache 0x105c0
3038500: system.remappingtable.dp_side_port: RemappingTable module sending req to dp for addr 0x105c0
3065390: system.remappingtable: RemappingTable module access dp resp for addr 0x105c0
3065390: system.remappingtable.bus_side_port: RemappingTable module send to bus for addr 0x105c0
3092000: system.remappingtable.dp_side_port: RemappingTable module sending req to dp for addr 0x10600
3093000: system.remappingtable.dp_side_port: RemappingTable module sending req to dp for addr 0x10280
3118840: system.remappingtable: RemappingTable module access dp resp for addr 0x10600
3118840: system.remappingtable.bus_side_port: RemappingTable module send to bus for addr 0x10600
3118840: system.remappingtable: RemappingTable module access dp resp for addr 0x10280
3124000: system.remappingtable.bus_side_port: RemappingTable module recv dp resp retry...
3124000: system.remappingtable.dp_side_port: RemappingTable module sending Dp retry resp for -1
3124000: system.remappingtable: RemappingTable module access dp resp for addr 0x10280
3124000: system.remappingtable.bus_side_port: RemappingTable module send to bus for addr 0x10280
3149500: system.remappingtable.dp_side_port: RemappingTable module sending req to dp for addr 0x102c0
3176610: system.remappingtable: RemappingTable module access dp resp for addr 0x102c0
3176610: system.remappingtable.bus_side_port: RemappingTable module send to bus for addr 0x102c0
3203000: system.remappingtable.dp_side_port: RemappingTable module sending req to dp for addr 0x10300
3208500: system.remappingtable.dp_side_port: RemappingTable module sending req to dp for addr 0x92d40
3230060: system.remappingtable: RemappingTable module access dp resp for addr 0x10300
3230060: system.remappingtable.bus_side_port: RemappingTable module send to bus for addr 0x10300
3230060: system.remappingtable: RemappingTable module access dp resp for addr 0x92d40
3236000: system.remappingtable.bus_side_port: RemappingTable module recv dp resp retry...
3236000: system.remappingtable.dp_side_port: RemappingTable module sending Dp retry resp for -1
3236000: system.remappingtable: RemappingTable module access dp resp for addr 0x92d40
3236000: system.remappingtable.bus_side_port: RemappingTable module send to bus for addr 0x92d40
3261000: system.remappingtable.dp_side_port: RemappingTable module sending req to dp for addr 0x10340
3264000: system.remappingtable.dp_side_port: RemappingTable module sending req to dp for addr 0x94ac0
3265500: system.remappingtable.dp_side_port: RemappingTable module sending req to dp for addr 0x103c0
3287330: system.remappingtable: RemappingTable module access dp resp for addr 0x10340
3287330: system.remappingtable.bus_side_port: RemappingTable module send to bus for addr 0x10340
3287330: system.remappingtable: RemappingTable module access dp resp for addr 0x103c0
3293000: system.remappingtable.bus_side_port: RemappingTable module recv dp resp retry...
3293000: system.remappingtable.dp_side_port: RemappingTable module sending Dp retry resp for -1
3293000: system.remappingtable: RemappingTable module access dp resp for addr 0x103c0
3293000: system.remappingtable.bus_side_port: RemappingTable module send to bus for addr 0x103c0
3318870: system.remappingtable: RemappingTable module access dp resp for addr 0x94ac0
3318870: system.remappingtable.bus_side_port: RemappingTable module send to bus for addr 0x94ac0
3329500: system.remappingtable.dp_side_port: RemappingTable module sending req to dp for addr 0x10380
3340000: system.remappingtable.dp_side_port: RemappingTable module sending req to dp for addr 0x7fb00
3345000: system.remappingtable.dp_side_port: RemappingTable module sending req to dp for addr 0x92480
3356720: system.remappingtable: RemappingTable module access dp resp for addr 0x10380
3356720: system.remappingtable.bus_side_port: RemappingTable module send to bus for addr 0x10380
3367010: system.remappingtable: RemappingTable module access dp resp for addr 0x7fb00
3367010: system.remappingtable.bus_side_port: RemappingTable module send to bus for addr 0x7fb00
3367010: system.remappingtable: RemappingTable module access dp resp for addr 0x92480
3373000: system.remappingtable.bus_side_port: RemappingTable module recv dp resp retry...
3373000: system.remappingtable.dp_side_port: RemappingTable module sending Dp retry resp for -1
3373000: system.remappingtable: RemappingTable module access dp resp for addr 0x92480
3373000: system.remappingtable.bus_side_port: RemappingTable module send to bus for addr 0x92480
3384000: system.remappingtable: RemappingTable module try to put the addr to remapcache 0x143c0
3384000: system.remappingtable.dp_side_port: RemappingTable module sending req to dp for addr 0x143c0
3398000: system.remappingtable.dp_side_port: RemappingTable module sending req to dp for addr 0x92d00
3424280: system.remappingtable: RemappingTable module access dp resp for addr 0x92d00
3424280: system.remappingtable.bus_side_port: RemappingTable module send to bus for addr 0x92d00
3439220: system.remappingtable: RemappingTable module access dp resp for addr 0x143c0
3439220: system.remappingtable.bus_side_port: RemappingTable module send to bus for addr 0x143c0
3450000: system.remappingtable.dp_side_port: RemappingTable module sending req to dp for addr 0x92d80
3465500: system.remappingtable.dp_side_port: RemappingTable module sending req to dp for addr 0x14400
3476570: system.remappingtable: RemappingTable module access dp resp for addr 0x92d80
3476570: system.remappingtable.bus_side_port: RemappingTable module send to bus for addr 0x92d80
3492840: system.remappingtable: RemappingTable module access dp resp for addr 0x14400
3492840: system.remappingtable.bus_side_port: RemappingTable module send to bus for addr 0x14400
3502000: system.remappingtable.dp_side_port: RemappingTable module sending req to dp for addr 0x92440
3528860: system.remappingtable: RemappingTable module access dp resp for addr 0x92440
3528860: system.remappingtable.bus_side_port: RemappingTable module send to bus for addr 0x92440
3531000: system.remappingtable.dp_side_port: RemappingTable module sending req to dp for addr 0xfa40
3555000: system.remappingtable.dp_side_port: RemappingTable module sending req to dp for addr 0x94a80
3557910: system.remappingtable: RemappingTable module access dp resp for addr 0xfa40
3557910: system.remappingtable.bus_side_port: RemappingTable module send to bus for addr 0xfa40
3588000: system.remappingtable: RemappingTable module try to put the addr to remapcache 0xdd80
3588000: system.remappingtable.dp_side_port: RemappingTable module sending req to dp for addr 0xdd80
3610200: system.remappingtable: RemappingTable module access dp resp for addr 0x94a80
3610200: system.remappingtable.bus_side_port: RemappingTable module send to bus for addr 0x94a80
3628460: system.remappingtable: RemappingTable module access dp resp for addr 0xdd80
3628460: system.remappingtable.bus_side_port: RemappingTable module send to bus for addr 0xdd80
3648000: system.remappingtable.dp_side_port: RemappingTable module sending req to dp for addr 0x94a40
3656000: system.remappingtable.dp_side_port: RemappingTable module sending req to dp for addr 0xddc0
3674940: system.remappingtable: RemappingTable module access dp resp for addr 0x94a40
3674940: system.remappingtable.bus_side_port: RemappingTable module send to bus for addr 0x94a40
3674940: system.remappingtable: RemappingTable module access dp resp for addr 0xddc0
3680000: system.remappingtable.bus_side_port: RemappingTable module recv dp resp retry...
3680000: system.remappingtable.dp_side_port: RemappingTable module sending Dp retry resp for -1
3680000: system.remappingtable: RemappingTable module access dp resp for addr 0xddc0
3680000: system.remappingtable.bus_side_port: RemappingTable module send to bus for addr 0xddc0
3706500: system.remappingtable.dp_side_port: RemappingTable module sending req to dp for addr 0xde00
3733540: system.remappingtable: RemappingTable module access dp resp for addr 0xde00
3733540: system.remappingtable.bus_side_port: RemappingTable module send to bus for addr 0xde00
3760000: system.remappingtable.dp_side_port: RemappingTable module sending req to dp for addr 0xde40
3766000: system.remappingtable.dp_side_port: RemappingTable module sending req to dp for addr 0x92580
3786990: system.remappingtable: RemappingTable module access dp resp for addr 0xde40
3786990: system.remappingtable.bus_side_port: RemappingTable module send to bus for addr 0xde40
3786990: system.remappingtable: RemappingTable module access dp resp for addr 0x92580
3792000: system.remappingtable.bus_side_port: RemappingTable module recv dp resp retry...
3792000: system.remappingtable.dp_side_port: RemappingTable module sending Dp retry resp for -1
3792000: system.remappingtable: RemappingTable module access dp resp for addr 0x92580
3792000: system.remappingtable.bus_side_port: RemappingTable module send to bus for addr 0x92580
3814000: system.remappingtable.dp_side_port: RemappingTable module sending req to dp for addr 0xde80
3820000: system.remappingtable: RemappingTable module try to put the addr to remapcache 0xe080
3820000: system.remappingtable.dp_side_port: RemappingTable module sending req to dp for addr 0xe080
3840940: system.remappingtable: RemappingTable module access dp resp for addr 0xde80
3840940: system.remappingtable.bus_side_port: RemappingTable module send to bus for addr 0xde80
3840940: system.remappingtable: RemappingTable module access dp resp for addr 0xe080
3846000: system.remappingtable.bus_side_port: RemappingTable module recv dp resp retry...
3846000: system.remappingtable.dp_side_port: RemappingTable module sending Dp retry resp for -1
3846000: system.remappingtable: RemappingTable module access dp resp for addr 0xe080
3846000: system.remappingtable.bus_side_port: RemappingTable module send to bus for addr 0xe080
3872500: system.remappingtable.dp_side_port: RemappingTable module sending req to dp for addr 0xd280
3876000: system.remappingtable.dp_side_port: RemappingTable module sending req to dp for addr 0x949c0
3899540: system.remappingtable: RemappingTable module access dp resp for addr 0xd280
3899540: system.remappingtable.bus_side_port: RemappingTable module send to bus for addr 0xd280
3899540: system.remappingtable: RemappingTable module access dp resp for addr 0x949c0
3905000: system.remappingtable.bus_side_port: RemappingTable module recv dp resp retry...
3905000: system.remappingtable.dp_side_port: RemappingTable module sending Dp retry resp for -1
3905000: system.remappingtable: RemappingTable module access dp resp for addr 0x949c0
3905000: system.remappingtable.bus_side_port: RemappingTable module send to bus for addr 0x949c0
3926500: system.remappingtable.dp_side_port: RemappingTable module sending req to dp for addr 0xd2c0
3933000: system.remappingtable.dp_side_port: RemappingTable module sending req to dp for addr 0xd3c0
4206640: system.remappingtable: RemappingTable module access dp resp for addr 0xd2c0
4206640: system.remappingtable.bus_side_port: RemappingTable module send to bus for addr 0xd2c0
4206640: system.remappingtable: RemappingTable module access dp resp for addr 0xd3c0
4212000: system.remappingtable.bus_side_port: RemappingTable module recv dp resp retry...
4212000: system.remappingtable.dp_side_port: RemappingTable module sending Dp retry resp for -1
4212000: system.remappingtable: RemappingTable module access dp resp for addr 0xd3c0
4212000: system.remappingtable.bus_side_port: RemappingTable module send to bus for addr 0xd3c0
4238000: system.remappingtable.dp_side_port: RemappingTable module sending req to dp for addr 0xd400
4239500: system.remappingtable: RemappingTable module try to put the addr to remapcache 0xc480
4239500: system.remappingtable.dp_side_port: RemappingTable module sending req to dp for addr 0xc480
4265070: system.remappingtable: RemappingTable module access dp resp for addr 0xd400
4265070: system.remappingtable.bus_side_port: RemappingTable module send to bus for addr 0xd400
4265070: system.remappingtable: RemappingTable module access dp resp for addr 0xc480
4271000: system.remappingtable.bus_side_port: RemappingTable module recv dp resp retry...
4271000: system.remappingtable.dp_side_port: RemappingTable module sending Dp retry resp for -1
4271000: system.remappingtable: RemappingTable module access dp resp for addr 0xc480
4271000: system.remappingtable.bus_side_port: RemappingTable module send to bus for addr 0xc480
4297000: system.remappingtable.dp_side_port: RemappingTable module sending req to dp for addr 0xc4c0
4301000: system.remappingtable.dp_side_port: RemappingTable module sending req to dp for addr 0x92500
4324000: system.remappingtable: RemappingTable module access dp resp for addr 0xc4c0
4324000: system.remappingtable.bus_side_port: RemappingTable module send to bus for addr 0xc4c0
4341430: system.remappingtable: RemappingTable module access dp resp for addr 0x92500
4341430: system.remappingtable.bus_side_port: RemappingTable module send to bus for addr 0x92500
4368000: system.remappingtable.dp_side_port: RemappingTable module sending req to dp for addr 0x92540
4394550: system.remappingtable: RemappingTable module access dp resp for addr 0x92540
4394550: system.remappingtable.bus_side_port: RemappingTable module send to bus for addr 0x92540
4435000: system.remappingtable.dp_side_port: RemappingTable module sending req to dp for addr 0x925c0
4461780: system.remappingtable: RemappingTable module access dp resp for addr 0x925c0
4461780: system.remappingtable.bus_side_port: RemappingTable module send to bus for addr 0x925c0
4494000: system.remappingtable.dp_side_port: RemappingTable module sending req to dp for addr 0x92600
4520710: system.remappingtable: RemappingTable module access dp resp for addr 0x92600
4520710: system.remappingtable.bus_side_port: RemappingTable module send to bus for addr 0x92600
4553000: system.remappingtable.dp_side_port: RemappingTable module sending req to dp for addr 0x92640
4579640: system.remappingtable: RemappingTable module access dp resp for addr 0x92640
4579640: system.remappingtable.bus_side_port: RemappingTable module send to bus for addr 0x92640
4612000: system.remappingtable.dp_side_port: RemappingTable module sending req to dp for addr 0x92680
4638570: system.remappingtable: RemappingTable module access dp resp for addr 0x92680
4638570: system.remappingtable.bus_side_port: RemappingTable module send to bus for addr 0x92680
4671000: system.remappingtable.dp_side_port: RemappingTable module sending req to dp for addr 0x926c0
4697500: system.remappingtable: RemappingTable module access dp resp for addr 0x926c0
4697500: system.remappingtable.bus_side_port: RemappingTable module send to bus for addr 0x926c0
4730000: system.remappingtable.dp_side_port: RemappingTable module sending req to dp for addr 0x92700
4756430: system.remappingtable: RemappingTable module access dp resp for addr 0x92700
4756430: system.remappingtable.bus_side_port: RemappingTable module send to bus for addr 0x92700
4789000: system.remappingtable.dp_side_port: RemappingTable module sending req to dp for addr 0x92740
4815360: system.remappingtable: RemappingTable module access dp resp for addr 0x92740
4815360: system.remappingtable.bus_side_port: RemappingTable module send to bus for addr 0x92740
4848000: system.remappingtable.dp_side_port: RemappingTable module sending req to dp for addr 0x92780
4874290: system.remappingtable: RemappingTable module access dp resp for addr 0x92780
4874290: system.remappingtable.bus_side_port: RemappingTable module send to bus for addr 0x92780
4907000: system.remappingtable.dp_side_port: RemappingTable module sending req to dp for addr 0x927c0
4934050: system.remappingtable: RemappingTable module access dp resp for addr 0x927c0
4934050: system.remappingtable.bus_side_port: RemappingTable module send to bus for addr 0x927c0
4967000: system.remappingtable.dp_side_port: RemappingTable module sending req to dp for addr 0x92800
4993810: system.remappingtable: RemappingTable module access dp resp for addr 0x92800
4993810: system.remappingtable.bus_side_port: RemappingTable module send to bus for addr 0x92800
5026000: system.remappingtable.dp_side_port: RemappingTable module sending req to dp for addr 0x92840
5052740: system.remappingtable: RemappingTable module access dp resp for addr 0x92840
5052740: system.remappingtable.bus_side_port: RemappingTable module send to bus for addr 0x92840
5085000: system.remappingtable.dp_side_port: RemappingTable module sending req to dp for addr 0x92880
5111670: system.remappingtable: RemappingTable module access dp resp for addr 0x92880
5111670: system.remappingtable.bus_side_port: RemappingTable module send to bus for addr 0x92880
5144000: system.remappingtable.dp_side_port: RemappingTable module sending req to dp for addr 0x928c0
5170600: system.remappingtable: RemappingTable module access dp resp for addr 0x928c0
5170600: system.remappingtable.bus_side_port: RemappingTable module send to bus for addr 0x928c0
5203000: system.remappingtable.dp_side_port: RemappingTable module sending req to dp for addr 0x92900
5229530: system.remappingtable: RemappingTable module access dp resp for addr 0x92900
5229530: system.remappingtable.bus_side_port: RemappingTable module send to bus for addr 0x92900
5262000: system.remappingtable.dp_side_port: RemappingTable module sending req to dp for addr 0x92940
5288460: system.remappingtable: RemappingTable module access dp resp for addr 0x92940
5288460: system.remappingtable.bus_side_port: RemappingTable module send to bus for addr 0x92940
5321000: system.remappingtable.dp_side_port: RemappingTable module sending req to dp for addr 0x92980
5347390: system.remappingtable: RemappingTable module access dp resp for addr 0x92980
5347390: system.remappingtable.bus_side_port: RemappingTable module send to bus for addr 0x92980
5380000: system.remappingtable.dp_side_port: RemappingTable module sending req to dp for addr 0x929c0
5406320: system.remappingtable: RemappingTable module access dp resp for addr 0x929c0
5406320: system.remappingtable.bus_side_port: RemappingTable module send to bus for addr 0x929c0
5439000: system.remappingtable.dp_side_port: RemappingTable module sending req to dp for addr 0x92a00
5466080: system.remappingtable: RemappingTable module access dp resp for addr 0x92a00
5466080: system.remappingtable.bus_side_port: RemappingTable module send to bus for addr 0x92a00
5499000: system.remappingtable.dp_side_port: RemappingTable module sending req to dp for addr 0x92a40
5525840: system.remappingtable: RemappingTable module access dp resp for addr 0x92a40
5525840: system.remappingtable.bus_side_port: RemappingTable module send to bus for addr 0x92a40
5558000: system.remappingtable.dp_side_port: RemappingTable module sending req to dp for addr 0x92a80
5584770: system.remappingtable: RemappingTable module access dp resp for addr 0x92a80
5584770: system.remappingtable.bus_side_port: RemappingTable module send to bus for addr 0x92a80
5617000: system.remappingtable.dp_side_port: RemappingTable module sending req to dp for addr 0x92ac0
5643700: system.remappingtable: RemappingTable module access dp resp for addr 0x92ac0
5643700: system.remappingtable.bus_side_port: RemappingTable module send to bus for addr 0x92ac0
5676000: system.remappingtable.dp_side_port: RemappingTable module sending req to dp for addr 0x92b00
5702630: system.remappingtable: RemappingTable module access dp resp for addr 0x92b00
5702630: system.remappingtable.bus_side_port: RemappingTable module send to bus for addr 0x92b00
5735000: system.remappingtable.dp_side_port: RemappingTable module sending req to dp for addr 0x92b40
5761560: system.remappingtable: RemappingTable module access dp resp for addr 0x92b40
5761560: system.remappingtable.bus_side_port: RemappingTable module send to bus for addr 0x92b40
5794000: system.remappingtable.dp_side_port: RemappingTable module sending req to dp for addr 0x92b80
5820490: system.remappingtable: RemappingTable module access dp resp for addr 0x92b80
5820490: system.remappingtable.bus_side_port: RemappingTable module send to bus for addr 0x92b80
5853000: system.remappingtable.dp_side_port: RemappingTable module sending req to dp for addr 0x92bc0
5879420: system.remappingtable: RemappingTable module access dp resp for addr 0x92bc0
5879420: system.remappingtable.bus_side_port: RemappingTable module send to bus for addr 0x92bc0
5912000: system.remappingtable.dp_side_port: RemappingTable module sending req to dp for addr 0x92c00
5938350: system.remappingtable: RemappingTable module access dp resp for addr 0x92c00
5938350: system.remappingtable.bus_side_port: RemappingTable module send to bus for addr 0x92c00
5971000: system.remappingtable.dp_side_port: RemappingTable module sending req to dp for addr 0x92c40
5975000: system.remappingtable.dp_side_port: RemappingTable module sending req to dp for addr 0xdec0
5997280: system.remappingtable: RemappingTable module access dp resp for addr 0x92c40
5997280: system.remappingtable.bus_side_port: RemappingTable module send to bus for addr 0x92c40
5997280: system.remappingtable: RemappingTable module access dp resp for addr 0xdec0
6003000: system.remappingtable.bus_side_port: RemappingTable module recv dp resp retry...
6003000: system.remappingtable.dp_side_port: RemappingTable module sending Dp retry resp for -1
6003000: system.remappingtable: RemappingTable module access dp resp for addr 0xdec0
6003000: system.remappingtable.bus_side_port: RemappingTable module send to bus for addr 0xdec0
6030000: system.remappingtable.dp_side_port: RemappingTable module sending req to dp for addr 0x92c80
6031000: system.remappingtable.dp_side_port: RemappingTable module sending req to dp for addr 0xdf00
6057040: system.remappingtable: RemappingTable module access dp resp for addr 0x92c80
6057040: system.remappingtable.bus_side_port: RemappingTable module send to bus for addr 0x92c80
6057040: system.remappingtable: RemappingTable module access dp resp for addr 0xdf00
6063000: system.remappingtable.bus_side_port: RemappingTable module recv dp resp retry...
6063000: system.remappingtable.dp_side_port: RemappingTable module sending Dp retry resp for -1
6063000: system.remappingtable: RemappingTable module access dp resp for addr 0xdf00
6063000: system.remappingtable.bus_side_port: RemappingTable module send to bus for addr 0xdf00
6088500: system.remappingtable.dp_side_port: RemappingTable module sending req to dp for addr 0xdf40
6090000: system.remappingtable.dp_side_port: RemappingTable module sending req to dp for addr 0x92cc0
6095500: system.remappingtable.dp_side_port: RemappingTable module sending req to dp for addr 0xe0c0
6115640: system.remappingtable: RemappingTable module access dp resp for addr 0xdf40
6115640: system.remappingtable.bus_side_port: RemappingTable module send to bus for addr 0xdf40
6115640: system.remappingtable: RemappingTable module access dp resp for addr 0x92cc0
6121000: system.remappingtable.bus_side_port: RemappingTable module recv dp resp retry...
6121000: system.remappingtable.dp_side_port: RemappingTable module sending Dp retry resp for -1
6121000: system.remappingtable: RemappingTable module access dp resp for addr 0x92cc0
6121000: system.remappingtable.bus_side_port: RemappingTable module send to bus for addr 0x92cc0
6136390: system.remappingtable: RemappingTable module access dp resp for addr 0xe0c0
6136390: system.remappingtable.bus_side_port: RemappingTable module send to bus for addr 0xe0c0
6159000: system.remappingtable.dp_side_port: RemappingTable module sending req to dp for addr 0x94a00
6163000: system.remappingtable.dp_side_port: RemappingTable module sending req to dp for addr 0xe100
6189840: system.remappingtable: RemappingTable module access dp resp for addr 0xe100
6189840: system.remappingtable.bus_side_port: RemappingTable module send to bus for addr 0xe100
6199800: system.remappingtable: RemappingTable module access dp resp for addr 0x94a00
6199800: system.remappingtable.bus_side_port: RemappingTable module send to bus for addr 0x94a00
6216500: system.remappingtable.dp_side_port: RemappingTable module sending req to dp for addr 0xe140
6237000: system.remappingtable.dp_side_port: RemappingTable module sending req to dp for addr 0xe200
6243460: system.remappingtable: RemappingTable module access dp resp for addr 0xe140
6243460: system.remappingtable.bus_side_port: RemappingTable module send to bus for addr 0xe140
6263710: system.remappingtable: RemappingTable module access dp resp for addr 0xe200
6263710: system.remappingtable.bus_side_port: RemappingTable module send to bus for addr 0xe200
6290000: system.remappingtable.dp_side_port: RemappingTable module sending req to dp for addr 0xe240
6297500: system.remappingtable.dp_side_port: RemappingTable module sending req to dp for addr 0xe300
6316830: system.remappingtable: RemappingTable module access dp resp for addr 0xe240
6316830: system.remappingtable.bus_side_port: RemappingTable module send to bus for addr 0xe240
6316830: system.remappingtable: RemappingTable module access dp resp for addr 0xe300
6322000: system.remappingtable.bus_side_port: RemappingTable module recv dp resp retry...
6322000: system.remappingtable.dp_side_port: RemappingTable module sending Dp retry resp for -1
6322000: system.remappingtable: RemappingTable module access dp resp for addr 0xe300
6322000: system.remappingtable.bus_side_port: RemappingTable module send to bus for addr 0xe300
6347500: system.remappingtable.dp_side_port: RemappingTable module sending req to dp for addr 0xe340
6374600: system.remappingtable: RemappingTable module access dp resp for addr 0xe340
6374600: system.remappingtable.bus_side_port: RemappingTable module send to bus for addr 0xe340
6401500: system.remappingtable.dp_side_port: RemappingTable module sending req to dp for addr 0xe380
6428550: system.remappingtable: RemappingTable module access dp resp for addr 0xe380
6428550: system.remappingtable.bus_side_port: RemappingTable module send to bus for addr 0xe380
6455500: system.remappingtable.dp_side_port: RemappingTable module sending req to dp for addr 0xe3c0
6459500: system.remappingtable.dp_side_port: RemappingTable module sending req to dp for addr 0xe500
6482500: system.remappingtable: RemappingTable module access dp resp for addr 0xe3c0
6482500: system.remappingtable.bus_side_port: RemappingTable module send to bus for addr 0xe3c0
6482500: system.remappingtable: RemappingTable module access dp resp for addr 0xe500
6488000: system.remappingtable.bus_side_port: RemappingTable module recv dp resp retry...
6488000: system.remappingtable.dp_side_port: RemappingTable module sending Dp retry resp for -1
6488000: system.remappingtable: RemappingTable module access dp resp for addr 0xe500
6488000: system.remappingtable.bus_side_port: RemappingTable module send to bus for addr 0xe500
6513500: system.remappingtable.dp_side_port: RemappingTable module sending req to dp for addr 0xe540
6540600: system.remappingtable: RemappingTable module access dp resp for addr 0xe540
6540600: system.remappingtable.bus_side_port: RemappingTable module send to bus for addr 0xe540
6567500: system.remappingtable.dp_side_port: RemappingTable module sending req to dp for addr 0xe580
6570000: system.remappingtable.dp_side_port: RemappingTable module sending req to dp for addr 0x80700
6594550: system.remappingtable: RemappingTable module access dp resp for addr 0xe580
6594550: system.remappingtable.bus_side_port: RemappingTable module send to bus for addr 0xe580
6610650: system.remappingtable: RemappingTable module access dp resp for addr 0x80700
6610650: system.remappingtable.bus_side_port: RemappingTable module send to bus for addr 0x80700
6621500: system.remappingtable.dp_side_port: RemappingTable module sending req to dp for addr 0xe5c0
6638000: system.remappingtable.dp_side_port: RemappingTable module sending req to dp for addr 0x11580
6648500: system.remappingtable: RemappingTable module access dp resp for addr 0xe5c0
6648500: system.remappingtable.bus_side_port: RemappingTable module send to bus for addr 0xe5c0
6678710: system.remappingtable: RemappingTable module access dp resp for addr 0x11580
6678710: system.remappingtable.bus_side_port: RemappingTable module send to bus for addr 0x11580
6705500: system.remappingtable.dp_side_port: RemappingTable module sending req to dp for addr 0x13780
6760550: system.remappingtable: RemappingTable module access dp resp for addr 0x13780
6760550: system.remappingtable.bus_side_port: RemappingTable module send to bus for addr 0x13780
6787500: system.remappingtable.dp_side_port: RemappingTable module sending req to dp for addr 0x137c0
6789000: system.remappingtable: RemappingTable module try to put the addr to remapcache 0x31100
6789000: system.remappingtable.dp_side_port: RemappingTable module sending req to dp for addr 0x31100
6790000: system.remappingtable.dp_side_port: RemappingTable module sending req to dp for addr 0x930c0
6814500: system.remappingtable: RemappingTable module access dp resp for addr 0x137c0
6814500: system.remappingtable.bus_side_port: RemappingTable module send to bus for addr 0x137c0
6843880: system.remappingtable: RemappingTable module access dp resp for addr 0x31100
6843880: system.remappingtable.bus_side_port: RemappingTable module send to bus for addr 0x31100
6843880: system.remappingtable: RemappingTable module access dp resp for addr 0x930c0
6849000: system.remappingtable.bus_side_port: RemappingTable module recv dp resp retry...
6849000: system.remappingtable.dp_side_port: RemappingTable module sending Dp retry resp for -1
6849000: system.remappingtable: RemappingTable module access dp resp for addr 0x930c0
6849000: system.remappingtable.bus_side_port: RemappingTable module send to bus for addr 0x930c0
6872500: system.remappingtable.dp_side_port: RemappingTable module sending req to dp for addr 0x94980
6899000: system.remappingtable.dp_side_port: RemappingTable module sending req to dp for addr 0x31140
6899990: system.remappingtable: RemappingTable module access dp resp for addr 0x94980
6899990: system.remappingtable.bus_side_port: RemappingTable module send to bus for addr 0x94980
6926050: system.remappingtable: RemappingTable module access dp resp for addr 0x31140
6926050: system.remappingtable.bus_side_port: RemappingTable module send to bus for addr 0x31140
6963000: system.remappingtable.dp_side_port: RemappingTable module sending req to dp for addr 0xa080
6982500: system.remappingtable.dp_side_port: RemappingTable module sending req to dp for addr 0xe400
6988000: system.remappingtable.dp_side_port: RemappingTable module sending req to dp for addr 0xe780
7004070: system.remappingtable: RemappingTable module access dp resp for addr 0xa080
7004070: system.remappingtable.bus_side_port: RemappingTable module send to bus for addr 0xa080
7004070: system.remappingtable: RemappingTable module access dp resp for addr 0xe400
7010000: system.remappingtable.bus_side_port: RemappingTable module recv dp resp retry...
7010000: system.remappingtable.dp_side_port: RemappingTable module sending Dp retry resp for -1
7010000: system.remappingtable: RemappingTable module access dp resp for addr 0xe400
7010000: system.remappingtable.bus_side_port: RemappingTable module send to bus for addr 0xe400
7010000: system.remappingtable: RemappingTable module access dp resp for addr 0xe780
7015000: system.remappingtable.bus_side_port: RemappingTable module recv dp resp retry...
7015000: system.remappingtable.dp_side_port: RemappingTable module sending Dp retry resp for -1
7015000: system.remappingtable: RemappingTable module access dp resp for addr 0xe780
7015000: system.remappingtable.bus_side_port: RemappingTable module send to bus for addr 0xe780
7041000: system.remappingtable.dp_side_port: RemappingTable module sending req to dp for addr 0xe7c0
7067980: system.remappingtable: RemappingTable module access dp resp for addr 0xe7c0
7067980: system.remappingtable.bus_side_port: RemappingTable module send to bus for addr 0xe7c0
7095000: system.remappingtable.dp_side_port: RemappingTable module sending req to dp for addr 0xe800
7121930: system.remappingtable: RemappingTable module access dp resp for addr 0xe800
7121930: system.remappingtable.bus_side_port: RemappingTable module send to bus for addr 0xe800
7149000: system.remappingtable.dp_side_port: RemappingTable module sending req to dp for addr 0xe840
7175880: system.remappingtable: RemappingTable module access dp resp for addr 0xe840
7175880: system.remappingtable.bus_side_port: RemappingTable module send to bus for addr 0xe840
7202500: system.remappingtable.dp_side_port: RemappingTable module sending req to dp for addr 0xe880
7228500: system.remappingtable: RemappingTable module try to put the addr to remapcache 0x96000
7228500: system.remappingtable.dp_side_port: RemappingTable module sending req to dp for addr 0x96000
7229500: system.remappingtable: RemappingTable module access dp resp for addr 0xe880
7229500: system.remappingtable.bus_side_port: RemappingTable module send to bus for addr 0xe880
7257000: system.remappingtable.dp_side_port: RemappingTable module sending req to dp for addr 0xe8c0
7261000: system.remappingtable.dp_side_port: RemappingTable module sending req to dp for addr 0xe440
7270170: system.remappingtable: RemappingTable module access dp resp for addr 0x96000
7270170: system.remappingtable.bus_side_port: RemappingTable module send to bus for addr 0x96000
7283780: system.remappingtable: RemappingTable module access dp resp for addr 0xe8c0
7283780: system.remappingtable.bus_side_port: RemappingTable module send to bus for addr 0xe8c0
7283780: system.remappingtable: RemappingTable module access dp resp for addr 0xe440
7289000: system.remappingtable.bus_side_port: RemappingTable module recv dp resp retry...
7289000: system.remappingtable.dp_side_port: RemappingTable module sending Dp retry resp for -1
7289000: system.remappingtable: RemappingTable module access dp resp for addr 0xe440
7289000: system.remappingtable.bus_side_port: RemappingTable module send to bus for addr 0xe440
7315000: system.remappingtable.dp_side_port: RemappingTable module sending req to dp for addr 0xe480
7335500: system.remappingtable.dp_side_port: RemappingTable module sending req to dp for addr 0x14440
7341880: system.remappingtable: RemappingTable module access dp resp for addr 0xe480
7341880: system.remappingtable.bus_side_port: RemappingTable module send to bus for addr 0xe480
7370000: system.remappingtable.dp_side_port: RemappingTable module sending req to dp for addr 0x924c0
7390520: system.remappingtable: RemappingTable module access dp resp for addr 0x14440
7390520: system.remappingtable.bus_side_port: RemappingTable module send to bus for addr 0x14440
7390520: system.remappingtable: RemappingTable module access dp resp for addr 0x924c0
7396000: system.remappingtable.bus_side_port: RemappingTable module recv dp resp retry...
7396000: system.remappingtable.dp_side_port: RemappingTable module sending Dp retry resp for -1
7396000: system.remappingtable: RemappingTable module access dp resp for addr 0x924c0
7396000: system.remappingtable.bus_side_port: RemappingTable module send to bus for addr 0x924c0
7418000: system.remappingtable.dp_side_port: RemappingTable module sending req to dp for addr 0x14480
7444800: system.remappingtable: RemappingTable module access dp resp for addr 0x14480
7444800: system.remappingtable.bus_side_port: RemappingTable module send to bus for addr 0x14480
7469000: system.remappingtable.dp_side_port: RemappingTable module sending req to dp for addr 0xe180
7491500: system.remappingtable.dp_side_port: RemappingTable module sending req to dp for addr 0xe2c0
7495430: system.remappingtable: RemappingTable module access dp resp for addr 0xe180
7495430: system.remappingtable.bus_side_port: RemappingTable module send to bus for addr 0xe180
7518340: system.remappingtable: RemappingTable module access dp resp for addr 0xe2c0
7518340: system.remappingtable.bus_side_port: RemappingTable module send to bus for addr 0xe2c0
7562000: system.remappingtable.dp_side_port: RemappingTable module sending req to dp for addr 0x96040
7588390: system.remappingtable: RemappingTable module access dp resp for addr 0x96040
7588390: system.remappingtable.bus_side_port: RemappingTable module send to bus for addr 0x96040
7645000: system.remappingtable.dp_side_port: RemappingTable module sending req to dp for addr 0x96080
7650500: system.remappingtable.dp_side_port: RemappingTable module sending req to dp for addr 0x144c0
7652500: system.remappingtable.dp_side_port: RemappingTable module sending req to dp for addr 0x80c40
7671390: system.remappingtable: RemappingTable module access dp resp for addr 0x96080
7671390: system.remappingtable.bus_side_port: RemappingTable module send to bus for addr 0x96080
7671390: system.remappingtable: RemappingTable module access dp resp for addr 0x144c0
7677000: system.remappingtable.bus_side_port: RemappingTable module recv dp resp retry...
7677000: system.remappingtable.dp_side_port: RemappingTable module sending Dp retry resp for -1
7677000: system.remappingtable: RemappingTable module access dp resp for addr 0x144c0
7677000: system.remappingtable.bus_side_port: RemappingTable module send to bus for addr 0x144c0
7677000: system.remappingtable: RemappingTable module access dp resp for addr 0x80c40
7682000: system.remappingtable.bus_side_port: RemappingTable module recv dp resp retry...
7682000: system.remappingtable.dp_side_port: RemappingTable module sending Dp retry resp for -1
7682000: system.remappingtable: RemappingTable module access dp resp for addr 0x80c40
7682000: system.remappingtable.bus_side_port: RemappingTable module send to bus for addr 0x80c40
7703000: system.remappingtable.dp_side_port: RemappingTable module sending req to dp for addr 0x14500
7729490: system.remappingtable: RemappingTable module access dp resp for addr 0x14500
7729490: system.remappingtable.bus_side_port: RemappingTable module send to bus for addr 0x14500
7765500: system.remappingtable.dp_side_port: RemappingTable module sending req to dp for addr 0x10400
7793070: system.remappingtable: RemappingTable module access dp resp for addr 0x10400
7793070: system.remappingtable.bus_side_port: RemappingTable module send to bus for addr 0x10400
7820000: system.remappingtable.dp_side_port: RemappingTable module sending req to dp for addr 0x10440
7846520: system.remappingtable: RemappingTable module access dp resp for addr 0x10440
7846520: system.remappingtable.bus_side_port: RemappingTable module send to bus for addr 0x10440
7963500: system.remappingtable.dp_side_port: RemappingTable module sending req to dp for addr 0x32d80
7966500: system.remappingtable.dp_side_port: RemappingTable module sending req to dp for addr 0x7fa40
8084400: system.remappingtable: RemappingTable module access dp resp for addr 0x32d80
8084400: system.remappingtable.bus_side_port: RemappingTable module send to bus for addr 0x32d80
8084400: system.remappingtable: RemappingTable module access dp resp for addr 0x7fa40
8090000: system.remappingtable.bus_side_port: RemappingTable module recv dp resp retry...
8090000: system.remappingtable.dp_side_port: RemappingTable module sending Dp retry resp for -1
8090000: system.remappingtable: RemappingTable module access dp resp for addr 0x7fa40
8090000: system.remappingtable.bus_side_port: RemappingTable module send to bus for addr 0x7fa40
8111500: system.remappingtable.dp_side_port: RemappingTable module sending req to dp for addr 0x32dc0
8118000: system.remappingtable: RemappingTable module try to put the addr to remapcache 0x62640
8118000: system.remappingtable.dp_side_port: RemappingTable module sending req to dp for addr 0x62640
8136000: system.remappingtable.dp_side_port: RemappingTable module sending req to dp for addr 0x96700
8138350: system.remappingtable: RemappingTable module access dp resp for addr 0x32dc0
8138350: system.remappingtable.bus_side_port: RemappingTable module send to bus for addr 0x32dc0
8158600: system.remappingtable: RemappingTable module access dp resp for addr 0x62640
8158600: system.remappingtable.bus_side_port: RemappingTable module send to bus for addr 0x62640
8158600: system.remappingtable: RemappingTable module access dp resp for addr 0x96700
8164000: system.remappingtable.bus_side_port: RemappingTable module recv dp resp retry...
8164000: system.remappingtable.dp_side_port: RemappingTable module sending Dp retry resp for -1
8164000: system.remappingtable: RemappingTable module access dp resp for addr 0x96700
8164000: system.remappingtable.bus_side_port: RemappingTable module send to bus for addr 0x96700
8165000: system.remappingtable.dp_side_port: RemappingTable module sending req to dp for addr 0x32e00
8191800: system.remappingtable: RemappingTable module access dp resp for addr 0x32e00
8191800: system.remappingtable.bus_side_port: RemappingTable module send to bus for addr 0x32e00
8193000: system.remappingtable.dp_side_port: RemappingTable module sending req to dp for addr 0x960c0
8218500: system.remappingtable.dp_side_port: RemappingTable module sending req to dp for addr 0x32e40
8220020: system.remappingtable: RemappingTable module access dp resp for addr 0x960c0
8220020: system.remappingtable.bus_side_port: RemappingTable module send to bus for addr 0x960c0
8245420: system.remappingtable: RemappingTable module access dp resp for addr 0x32e40
8245420: system.remappingtable.bus_side_port: RemappingTable module send to bus for addr 0x32e40
8252000: system.remappingtable.dp_side_port: RemappingTable module sending req to dp for addr 0x96100
8278950: system.remappingtable: RemappingTable module access dp resp for addr 0x96100
8278950: system.remappingtable.bus_side_port: RemappingTable module send to bus for addr 0x96100
8280000: system.remappingtable.dp_side_port: RemappingTable module sending req to dp for addr 0x15d00
8306340: system.remappingtable: RemappingTable module access dp resp for addr 0x15d00
8306340: system.remappingtable.bus_side_port: RemappingTable module send to bus for addr 0x15d00
8325000: system.remappingtable.dp_side_port: RemappingTable module sending req to dp for addr 0x11e00
8336500: system.remappingtable.dp_side_port: RemappingTable module sending req to dp for addr 0x5ed80
8351990: system.remappingtable: RemappingTable module access dp resp for addr 0x11e00
8351990: system.remappingtable.bus_side_port: RemappingTable module send to bus for addr 0x11e00
8377390: system.remappingtable: RemappingTable module access dp resp for addr 0x5ed80
8377390: system.remappingtable.bus_side_port: RemappingTable module send to bus for addr 0x5ed80
8379500: system.remappingtable.dp_side_port: RemappingTable module sending req to dp for addr 0x11e40
8406440: system.remappingtable: RemappingTable module access dp resp for addr 0x11e40
8406440: system.remappingtable.bus_side_port: RemappingTable module send to bus for addr 0x11e40
8473000: system.remappingtable.dp_side_port: RemappingTable module sending req to dp for addr 0x11e80
8499730: system.remappingtable: RemappingTable module access dp resp for addr 0x11e80
8499730: system.remappingtable.bus_side_port: RemappingTable module send to bus for addr 0x11e80
8501500: system.remappingtable.dp_side_port: RemappingTable module sending req to dp for addr 0x15d40
8528450: system.remappingtable: RemappingTable module access dp resp for addr 0x15d40
8528450: system.remappingtable.bus_side_port: RemappingTable module send to bus for addr 0x15d40
8581500: system.remappingtable.dp_side_port: RemappingTable module sending req to dp for addr 0x2a540
[...]
13588000: system.remappingtable.dp_side_port: RemappingTable module sending Dp retry resp for -1
13588000: system.remappingtable: RemappingTable module access dp resp for addr 0xb780
13588000: system.remappingtable.bus_side_port: RemappingTable module send to bus for addr 0xb780
13614000: system.remappingtable.dp_side_port: RemappingTable module sending req to dp for addr 0xb7c0
13640750: system.remappingtable: RemappingTable module access dp resp for addr 0xb7c0
13640750: system.remappingtable.bus_side_port: RemappingTable module send to bus for addr 0xb7c0
13668500: system.remappingtable.dp_side_port: RemappingTable module sending req to dp for addr 0xb800
13696030: system.remappingtable: RemappingTable module access dp resp for addr 0xb800
13696030: system.remappingtable.bus_side_port: RemappingTable module send to bus for addr 0xb800
13770000: system.remappingtable: RemappingTable module try to put the addr to remapcache 0x97000
13770000: system.remappingtable.dp_side_port: RemappingTable module sending req to dp for addr 0x97000
13810900: system.remappingtable: RemappingTable module access dp resp for addr 0x97000
13810900: system.remappingtable.bus_side_port: RemappingTable module send to bus for addr 0x97000
13963000: system.remappingtable.dp_side_port: RemappingTable module sending req to dp for addr 0x27d40
13966500: system.remappingtable.dp_side_port: RemappingTable module sending req to dp for addr 0x94340
13989350: system.remappingtable: RemappingTable module access dp resp for addr 0x27d40
13989350: system.remappingtable.bus_side_port: RemappingTable module send to bus for addr 0x27d40
13989350: system.remappingtable: RemappingTable module access dp resp for addr 0x94340
13995000: system.remappingtable.bus_side_port: RemappingTable module recv dp resp retry...
13995000: system.remappingtable.dp_side_port: RemappingTable module sending Dp retry resp for -1
13995000: system.remappingtable: RemappingTable module access dp resp for addr 0x94340
13995000: system.remappingtable.bus_side_port: RemappingTable module send to bus for addr 0x94340
14015500: system.remappingtable.dp_side_port: RemappingTable module sending req to dp for addr 0x27d80
14042970: system.remappingtable: RemappingTable module access dp resp for addr 0x27d80
14042970: system.remappingtable.bus_side_port: RemappingTable module send to bus for addr 0x27d80
14069500: system.remappingtable.dp_side_port: RemappingTable module sending req to dp for addr 0x27dc0
14074500: system.remappingtable.dp_side_port: RemappingTable module sending req to dp for addr 0x27e00
14096920: system.remappingtable: RemappingTable module access dp resp for addr 0x27dc0
14096920: system.remappingtable.bus_side_port: RemappingTable module send to bus for addr 0x27dc0
14096920: system.remappingtable: RemappingTable module access dp resp for addr 0x27e00
14102000: system.remappingtable.bus_side_port: RemappingTable module recv dp resp retry...
14102000: system.remappingtable.dp_side_port: RemappingTable module sending Dp retry resp for -1
14102000: system.remappingtable: RemappingTable module access dp resp for addr 0x27e00
14102000: system.remappingtable.bus_side_port: RemappingTable module send to bus for addr 0x27e00
14127500: system.remappingtable.dp_side_port: RemappingTable module sending req to dp for addr 0x27e40
14141500: system.remappingtable.dp_side_port: RemappingTable module sending req to dp for addr 0x29380
14155020: system.remappingtable: RemappingTable module access dp resp for addr 0x27e40
14155020: system.remappingtable.bus_side_port: RemappingTable module send to bus for addr 0x27e40
14168300: system.remappingtable: RemappingTable module access dp resp for addr 0x29380
14168300: system.remappingtable.bus_side_port: RemappingTable module send to bus for addr 0x29380
14195000: system.remappingtable.dp_side_port: RemappingTable module sending req to dp for addr 0x293c0
14221750: system.remappingtable: RemappingTable module access dp resp for addr 0x293c0
14221750: system.remappingtable.bus_side_port: RemappingTable module send to bus for addr 0x293c0
14249000: system.remappingtable.dp_side_port: RemappingTable module sending req to dp for addr 0x134c0
14275700: system.remappingtable: RemappingTable module access dp resp for addr 0x134c0
14275700: system.remappingtable.bus_side_port: RemappingTable module send to bus for addr 0x134c0
14301000: system.remappingtable.dp_side_port: RemappingTable module sending req to dp for addr 0x13500
14327990: system.remappingtable: RemappingTable module access dp resp for addr 0x13500
14327990: system.remappingtable.bus_side_port: RemappingTable module send to bus for addr 0x13500
Hello world!
14355500: system.remappingtable.dp_side_port: RemappingTable module sending req to dp for addr 0x29400
14382440: system.remappingtable: RemappingTable module access dp resp for addr 0x29400
14382440: system.remappingtable.bus_side_port: RemappingTable module send to bus for addr 0x29400
14459500: system.remappingtable.dp_side_port: RemappingTable module sending req to dp for addr 0x1bd80
14487020: system.remappingtable: RemappingTable module access dp resp for addr 0x1bd80
14487020: system.remappingtable.bus_side_port: RemappingTable module send to bus for addr 0x1bd80
14499000: system.remappingtable.dp_side_port: RemappingTable module sending req to dp for addr 0xa900
14525530: system.remappingtable: RemappingTable module access dp resp for addr 0xa900
14525530: system.remappingtable.bus_side_port: RemappingTable module send to bus for addr 0xa900
14548500: system.remappingtable.dp_side_port: RemappingTable module sending req to dp for addr 0x8740
14559000: system.remappingtable: RemappingTable module try to put the addr to remapcache 0x55180
14559000: system.remappingtable.dp_side_port: RemappingTable module sending req to dp for addr 0x55180
14589940: system.remappingtable: RemappingTable module access dp resp for addr 0x8740
14589940: system.remappingtable.bus_side_port: RemappingTable module send to bus for addr 0x8740
14613510: system.remappingtable: RemappingTable module access dp resp for addr 0x55180
14613510: system.remappingtable.bus_side_port: RemappingTable module send to bus for addr 0x55180
14639000: system.remappingtable.dp_side_port: RemappingTable module sending req to dp for addr 0x551c0
14642000: system.remappingtable.dp_side_port: RemappingTable module sending req to dp for addr 0x93400
14665800: system.remappingtable: RemappingTable module access dp resp for addr 0x551c0
14665800: system.remappingtable.bus_side_port: RemappingTable module send to bus for addr 0x551c0
14694000: system.remappingtable.dp_side_port: RemappingTable module sending req to dp for addr 0x76000
14696510: system.remappingtable: RemappingTable module access dp resp for addr 0x93400
14696510: system.remappingtable.bus_side_port: RemappingTable module send to bus for addr 0x93400
14720580: system.remappingtable: RemappingTable module access dp resp for addr 0x76000
14720580: system.remappingtable.bus_side_port: RemappingTable module send to bus for addr 0x76000
14741500: system.remappingtable.dp_side_port: RemappingTable module sending req to dp for addr 0x8640
14768390: system.remappingtable: RemappingTable module access dp resp for addr 0x8640
14768390: system.remappingtable.bus_side_port: RemappingTable module send to bus for addr 0x8640
14795000: system.remappingtable.dp_side_port: RemappingTable module sending req to dp for addr 0x8680
14821840: system.remappingtable: RemappingTable module access dp resp for addr 0x8680
14821840: system.remappingtable.bus_side_port: RemappingTable module send to bus for addr 0x8680
14849000: system.remappingtable.dp_side_port: RemappingTable module sending req to dp for addr 0x86c0
14855500: system.remappingtable.dp_side_port: RemappingTable module sending req to dp for addr 0x8700
14875790: system.remappingtable: RemappingTable module access dp resp for addr 0x86c0
14875790: system.remappingtable.bus_side_port: RemappingTable module send to bus for addr 0x86c0
14875790: system.remappingtable: RemappingTable module access dp resp for addr 0x8700
14881000: system.remappingtable.bus_side_port: RemappingTable module recv dp resp retry...
14881000: system.remappingtable.dp_side_port: RemappingTable module sending Dp retry resp for -1
14881000: system.remappingtable: RemappingTable module access dp resp for addr 0x8700
14881000: system.remappingtable.bus_side_port: RemappingTable module send to bus for addr 0x8700
14916000: system.remappingtable.dp_side_port: RemappingTable module sending req to dp for addr 0xdc80
14925500: system.remappingtable.dp_side_port: RemappingTable module sending req to dp for addr 0x763c0
14927000: system.remappingtable.dp_side_port: RemappingTable module sending req to dp for addr 0x132c0
14952650: system.remappingtable: RemappingTable module access dp resp for addr 0x763c0
14952650: system.remappingtable.bus_side_port: RemappingTable module send to bus for addr 0x763c0
14952650: system.remappingtable: RemappingTable module access dp resp for addr 0xdc80
14958000: system.remappingtable.bus_side_port: RemappingTable module recv dp resp retry...
14958000: system.remappingtable.dp_side_port: RemappingTable module sending Dp retry resp for -1
14958000: system.remappingtable: RemappingTable module access dp resp for addr 0xdc80
14958000: system.remappingtable.bus_side_port: RemappingTable module send to bus for addr 0xdc80
14980000: system.remappingtable.dp_side_port: RemappingTable module sending req to dp for addr 0xbfc0
14982030: system.remappingtable: RemappingTable module access dp resp for addr 0x132c0
14982030: system.remappingtable.bus_side_port: RemappingTable module send to bus for addr 0x132c0
15006930: system.remappingtable: RemappingTable module access dp resp for addr 0xbfc0
15006930: system.remappingtable.bus_side_port: RemappingTable module send to bus for addr 0xbfc0
15032500: system.remappingtable.dp_side_port: RemappingTable module sending req to dp for addr 0xc000
15034000: system.remappingtable.dp_side_port: RemappingTable module sending req to dp for addr 0xbd40
15059720: system.remappingtable: RemappingTable module access dp resp for addr 0xc000
15059720: system.remappingtable.bus_side_port: RemappingTable module send to bus for addr 0xc000
15059720: system.remappingtable: RemappingTable module access dp resp for addr 0xbd40
15065000: system.remappingtable.bus_side_port: RemappingTable module recv dp resp retry...
15065000: system.remappingtable.dp_side_port: RemappingTable module sending Dp retry resp for -1
15065000: system.remappingtable: RemappingTable module access dp resp for addr 0xbd40
15065000: system.remappingtable.bus_side_port: RemappingTable module send to bus for addr 0xbd40
15092000: system.remappingtable.dp_side_port: RemappingTable module sending req to dp for addr 0xbd80
15118980: system.remappingtable: RemappingTable module access dp resp for addr 0xbd80
15118980: system.remappingtable.bus_side_port: RemappingTable module send to bus for addr 0xbd80
15146000: system.remappingtable.dp_side_port: RemappingTable module sending req to dp for addr 0xbdc0
15147500: system.remappingtable.dp_side_port: RemappingTable module sending req to dp for addr 0x7ff40
15172930: system.remappingtable: RemappingTable module access dp resp for addr 0xbdc0
15172930: system.remappingtable.bus_side_port: RemappingTable module send to bus for addr 0xbdc0
15172930: system.remappingtable: RemappingTable module access dp resp for addr 0x7ff40
15178000: system.remappingtable.bus_side_port: RemappingTable module recv dp resp retry...
15178000: system.remappingtable.dp_side_port: RemappingTable module sending Dp retry resp for -1
15178000: system.remappingtable: RemappingTable module access dp resp for addr 0x7ff40
15178000: system.remappingtable.bus_side_port: RemappingTable module send to bus for addr 0x7ff40
15200000: system.remappingtable.dp_side_port: RemappingTable module sending req to dp for addr 0xbe00
15203500: system.remappingtable.dp_side_port: RemappingTable module sending req to dp for addr 0x80000
15217500: system.remappingtable.dp_side_port: RemappingTable module sending req to dp for addr 0xbe40
15226880: system.remappingtable: RemappingTable module access dp resp for addr 0xbe00
15226880: system.remappingtable.bus_side_port: RemappingTable module send to bus for addr 0xbe00
15226880: system.remappingtable: RemappingTable module access dp resp for addr 0x80000
15232000: system.remappingtable.bus_side_port: RemappingTable module recv dp resp retry...
15232000: system.remappingtable.dp_side_port: RemappingTable module sending Dp retry resp for -1
15232000: system.remappingtable: RemappingTable module access dp resp for addr 0x80000
15232000: system.remappingtable.bus_side_port: RemappingTable module send to bus for addr 0x80000
15244810: system.remappingtable: RemappingTable module access dp resp for addr 0xbe40
15244810: system.remappingtable.bus_side_port: RemappingTable module send to bus for addr 0xbe40
15259000: system.remappingtable.dp_side_port: RemappingTable module sending req to dp for addr 0x80040
15273000: system.remappingtable.dp_side_port: RemappingTable module sending req to dp for addr 0x7ff80
15285810: system.remappingtable: RemappingTable module access dp resp for addr 0x80040
15285810: system.remappingtable.bus_side_port: RemappingTable module send to bus for addr 0x80040
15299920: system.remappingtable: RemappingTable module access dp resp for addr 0x7ff80
15299920: system.remappingtable.bus_side_port: RemappingTable module send to bus for addr 0x7ff80
15344000: system.remappingtable.dp_side_port: RemappingTable module sending req to dp for addr 0x7ffc0
15370470: system.remappingtable: RemappingTable module access dp resp for addr 0x7ffc0
15370470: system.remappingtable.bus_side_port: RemappingTable module send to bus for addr 0x7ffc0
15408000: system.remappingtable.dp_side_port: RemappingTable module sending req to dp for addr 0x802c0
15409000: system.remappingtable.dp_side_port: RemappingTable module sending req to dp for addr 0xbe80
15427500: system.remappingtable.dp_side_port: RemappingTable module sending req to dp for addr 0x80500
15429000: system.remappingtable.dp_side_port: RemappingTable module sending req to dp for addr 0x80480
15432500: system.remappingtable.dp_side_port: RemappingTable module sending req to dp for addr 0x804c0
15434380: system.remappingtable: RemappingTable module access dp resp for addr 0x802c0
15434380: system.remappingtable.bus_side_port: RemappingTable module send to bus for addr 0x802c0
15434380: system.remappingtable: RemappingTable module access dp resp for addr 0xbe80
15440000: system.remappingtable.bus_side_port: RemappingTable module recv dp resp retry...
15440000: system.remappingtable.dp_side_port: RemappingTable module sending Dp retry resp for -1
15440000: system.remappingtable: RemappingTable module access dp resp for addr 0xbe80
15440000: system.remappingtable.bus_side_port: RemappingTable module send to bus for addr 0xbe80
15454800: system.remappingtable: RemappingTable module access dp resp for addr 0x80500
15454800: system.remappingtable.bus_side_port: RemappingTable module send to bus for addr 0x80500
15454800: system.remappingtable: RemappingTable module access dp resp for addr 0x80480
15460000: system.remappingtable.bus_side_port: RemappingTable module recv dp resp retry...
15460000: system.remappingtable.dp_side_port: RemappingTable module sending Dp retry resp for -1
15460000: system.remappingtable: RemappingTable module access dp resp for addr 0x80480
15460000: system.remappingtable.bus_side_port: RemappingTable module send to bus for addr 0x80480
15460000: system.remappingtable: RemappingTable module access dp resp for addr 0x804c0
15465000: system.remappingtable.bus_side_port: RemappingTable module recv dp resp retry...
15465000: system.remappingtable.dp_side_port: RemappingTable module sending Dp retry resp for -1
15465000: system.remappingtable: RemappingTable module access dp resp for addr 0x804c0
15465000: system.remappingtable.bus_side_port: RemappingTable module send to bus for addr 0x804c0
15538500: system.remappingtable.dp_side_port: RemappingTable module sending req to dp for addr 0x80440
15553500: system.remappingtable.dp_side_port: RemappingTable module sending req to dp for addr 0xc040
15571000: system.remappingtable: RemappingTable module access dp resp for addr 0x80440
15571000: system.remappingtable.bus_side_port: RemappingTable module send to bus for addr 0x80440
15580960: system.remappingtable: RemappingTable module access dp resp for addr 0xc040
15580960: system.remappingtable.bus_side_port: RemappingTable module send to bus for addr 0xc040
15613000: system.remappingtable.dp_side_port: RemappingTable module sending req to dp for addr 0x27cc0
15856850: system.remappingtable: RemappingTable module access dp resp for addr 0x27cc0
15856850: system.remappingtable.bus_side_port: RemappingTable module send to bus for addr 0x27cc0
15883500: system.remappingtable.dp_side_port: RemappingTable module sending req to dp for addr 0xb8c0
15910470: system.remappingtable: RemappingTable module access dp resp for addr 0xb8c0
15910470: system.remappingtable.bus_side_port: RemappingTable module send to bus for addr 0xb8c0
15936000: system.remappingtable.dp_side_port: RemappingTable module sending req to dp for addr 0xb900
15963090: system.remappingtable: RemappingTable module access dp resp for addr 0xb900
15963090: system.remappingtable.bus_side_port: RemappingTable module send to bus for addr 0xb900
15991000: system.remappingtable.dp_side_port: RemappingTable module sending req to dp for addr 0xb940
15996000: system.remappingtable.dp_side_port: RemappingTable module sending req to dp for addr 0x28c00
16017870: system.remappingtable: RemappingTable module access dp resp for addr 0xb940
16017870: system.remappingtable.bus_side_port: RemappingTable module send to bus for addr 0xb940
16036960: system.remappingtable: RemappingTable module access dp resp for addr 0x28c00
16036960: system.remappingtable.bus_side_port: RemappingTable module send to bus for addr 0x28c00
16062500: system.remappingtable.dp_side_port: RemappingTable module sending req to dp for addr 0x28c40
16068500: system.remappingtable.dp_side_port: RemappingTable module sending req to dp for addr 0x28c80
16089750: system.remappingtable: RemappingTable module access dp resp for addr 0x28c40
16089750: system.remappingtable.bus_side_port: RemappingTable module send to bus for addr 0x28c40
16089750: system.remappingtable: RemappingTable module access dp resp for addr 0x28c80
16095000: system.remappingtable.bus_side_port: RemappingTable module recv dp resp retry...
16095000: system.remappingtable.dp_side_port: RemappingTable module sending Dp retry resp for -1
16095000: system.remappingtable: RemappingTable module access dp resp for addr 0x28c80
16095000: system.remappingtable.bus_side_port: RemappingTable module send to bus for addr 0x28c80
16130000: system.remappingtable.dp_side_port: RemappingTable module sending req to dp for addr 0xb980
16156480: system.remappingtable: RemappingTable module access dp resp for addr 0xb980
16156480: system.remappingtable.bus_side_port: RemappingTable module send to bus for addr 0xb980
16183000: system.remappingtable.dp_side_port: RemappingTable module sending req to dp for addr 0xb9c0
16209600: system.remappingtable: RemappingTable module access dp resp for addr 0xb9c0
16209600: system.remappingtable.bus_side_port: RemappingTable module send to bus for addr 0xb9c0
16210500: system.remappingtable.dp_side_port: RemappingTable module sending req to dp for addr 0x27d00
16237490: system.remappingtable: RemappingTable module access dp resp for addr 0x27d00
16237490: system.remappingtable.bus_side_port: RemappingTable module send to bus for addr 0x27d00
Exiting @ tick 16286000 because exiting with last active thread context
