
---------- Begin Simulation Statistics ----------
simSeconds                                   0.389464                       # Number of seconds simulated (Second)
simTicks                                 389464257250                       # Number of ticks simulated (Tick)
finalTick                                389464257250                       # Number of ticks from beginning of simulation (restored from checkpoints and never reset) (Tick)
simFreq                                  1000000000000                       # The number of ticks per simulated second ((Tick/Second))
hostSeconds                                    225.18                       # Real time elapsed on the host (Second)
hostTickRate                               1729565912                       # The number of ticks simulated per host second (ticks/s) ((Tick/Second))
hostMemory                                    7444484                       # Number of bytes of host memory used (Byte)
simInsts                                    139989389                       # Number of instructions simulated (Count)
simOps                                      279042606                       # Number of ops (including micro ops) simulated (Count)
hostInstRate                                   621676                       # Simulator instruction rate (inst/s) ((Count/Second))
hostOpRate                                    1239195                       # Simulator op (including micro ops) rate (op/s) ((Count/Second))
system.clk_domain.clock                          1000                       # Clock period in ticks (Tick)
system.cpu0.numCycles                      1557857029                       # Number of cpu cycles simulated (Cycle)
system.cpu0.cpi                             11.127967                       # CPI: cycles per instruction (core level) ((Cycle/Count))
system.cpu0.ipc                              0.089864                       # IPC: instructions per cycle (core level) ((Count/Cycle))
system.cpu0.numWorkItemsStarted                     0                       # Number of work items this cpu started (Count)
system.cpu0.numWorkItemsCompleted                   0                       # Number of work items this cpu completed (Count)
system.cpu0.commitStats0.numInsts           139994751                       # Number of instructions committed (thread level) (Count)
system.cpu0.commitStats0.numOps             280463744                       # Number of ops (including micro ops) committed (thread level) (Count)
system.cpu0.commitStats0.numInstsNotNOP             0                       # Number of instructions committed excluding NOPs or prefetches (Count)
system.cpu0.commitStats0.numOpsNotNOP               0                       # Number of Ops (including micro ops) Simulated (Count)
system.cpu0.commitStats0.cpi                11.127967                       # CPI: cycles per instruction (thread level) ((Cycle/Count))
system.cpu0.commitStats0.ipc                 0.089864                       # IPC: instructions per cycle (thread level) ((Count/Cycle))
system.cpu0.commitStats0.numMemRefs                 0                       # Number of memory references committed (Count)
system.cpu0.commitStats0.numFpInsts          31175343                       # Number of float instructions (Count)
system.cpu0.commitStats0.numIntInsts        262890099                       # Number of integer instructions (Count)
system.cpu0.commitStats0.numLoadInsts        38029702                       # Number of load instructions (Count)
system.cpu0.commitStats0.numStoreInsts       23668755                       # Number of store instructions (Count)
system.cpu0.commitStats0.numVecInsts                0                       # Number of vector instructions (Count)
system.cpu0.commitStats0.committedInstType::No_OpClass      2064436      0.74%      0.74% # Class of committed instruction. (Count)
system.cpu0.commitStats0.committedInstType::IntAlu    199318981     71.07%     71.80% # Class of committed instruction. (Count)
system.cpu0.commitStats0.committedInstType::IntMult       218224      0.08%     71.88% # Class of committed instruction. (Count)
system.cpu0.commitStats0.committedInstType::IntDiv         1500      0.00%     71.88% # Class of committed instruction. (Count)
system.cpu0.commitStats0.committedInstType::FloatAdd      1283054      0.46%     72.34% # Class of committed instruction. (Count)
system.cpu0.commitStats0.committedInstType::FloatCmp            0      0.00%     72.34% # Class of committed instruction. (Count)
system.cpu0.commitStats0.committedInstType::FloatCvt           32      0.00%     72.34% # Class of committed instruction. (Count)
system.cpu0.commitStats0.committedInstType::FloatMult            0      0.00%     72.34% # Class of committed instruction. (Count)
system.cpu0.commitStats0.committedInstType::FloatMultAcc            0      0.00%     72.34% # Class of committed instruction. (Count)
system.cpu0.commitStats0.committedInstType::FloatDiv            0      0.00%     72.34% # Class of committed instruction. (Count)
system.cpu0.commitStats0.committedInstType::FloatMisc            0      0.00%     72.34% # Class of committed instruction. (Count)
system.cpu0.commitStats0.committedInstType::FloatSqrt            0      0.00%     72.34% # Class of committed instruction. (Count)
system.cpu0.commitStats0.committedInstType::SimdAdd          814      0.00%     72.34% # Class of committed instruction. (Count)
system.cpu0.commitStats0.committedInstType::SimdAddAcc            0      0.00%     72.34% # Class of committed instruction. (Count)
system.cpu0.commitStats0.committedInstType::SimdAlu      2777789      0.99%     73.33% # Class of committed instruction. (Count)
system.cpu0.commitStats0.committedInstType::SimdCmp      2024990      0.72%     74.05% # Class of committed instruction. (Count)
system.cpu0.commitStats0.committedInstType::SimdCvt      4857664      1.73%     75.78% # Class of committed instruction. (Count)
system.cpu0.commitStats0.committedInstType::SimdMisc      5320955      1.90%     77.68% # Class of committed instruction. (Count)
system.cpu0.commitStats0.committedInstType::SimdMult            0      0.00%     77.68% # Class of committed instruction. (Count)
system.cpu0.commitStats0.committedInstType::SimdMultAcc            0      0.00%     77.68% # Class of committed instruction. (Count)
system.cpu0.commitStats0.committedInstType::SimdMatMultAcc            0      0.00%     77.68% # Class of committed instruction. (Count)
system.cpu0.commitStats0.committedInstType::SimdShift          281      0.00%     77.68% # Class of committed instruction. (Count)
system.cpu0.commitStats0.committedInstType::SimdShiftAcc            0      0.00%     77.68% # Class of committed instruction. (Count)
system.cpu0.commitStats0.committedInstType::SimdDiv            0      0.00%     77.68% # Class of committed instruction. (Count)
system.cpu0.commitStats0.committedInstType::SimdSqrt            0      0.00%     77.68% # Class of committed instruction. (Count)
system.cpu0.commitStats0.committedInstType::SimdFloatAdd       340692      0.12%     77.80% # Class of committed instruction. (Count)
system.cpu0.commitStats0.committedInstType::SimdFloatAlu            0      0.00%     77.80% # Class of committed instruction. (Count)
system.cpu0.commitStats0.committedInstType::SimdFloatCmp            0      0.00%     77.80% # Class of committed instruction. (Count)
system.cpu0.commitStats0.committedInstType::SimdFloatCvt       277945      0.10%     77.90% # Class of committed instruction. (Count)
system.cpu0.commitStats0.committedInstType::SimdFloatDiv       194246      0.07%     77.97% # Class of committed instruction. (Count)
system.cpu0.commitStats0.committedInstType::SimdFloatMisc            0      0.00%     77.97% # Class of committed instruction. (Count)
system.cpu0.commitStats0.committedInstType::SimdFloatMult        83684      0.03%     78.00% # Class of committed instruction. (Count)
system.cpu0.commitStats0.committedInstType::SimdFloatMultAcc            0      0.00%     78.00% # Class of committed instruction. (Count)
system.cpu0.commitStats0.committedInstType::SimdFloatMatMultAcc            0      0.00%     78.00% # Class of committed instruction. (Count)
system.cpu0.commitStats0.committedInstType::SimdFloatSqrt            0      0.00%     78.00% # Class of committed instruction. (Count)
system.cpu0.commitStats0.committedInstType::SimdReduceAdd            0      0.00%     78.00% # Class of committed instruction. (Count)
system.cpu0.commitStats0.committedInstType::SimdReduceAlu            0      0.00%     78.00% # Class of committed instruction. (Count)
system.cpu0.commitStats0.committedInstType::SimdReduceCmp            0      0.00%     78.00% # Class of committed instruction. (Count)
system.cpu0.commitStats0.committedInstType::SimdFloatReduceAdd            0      0.00%     78.00% # Class of committed instruction. (Count)
system.cpu0.commitStats0.committedInstType::SimdFloatReduceCmp            0      0.00%     78.00% # Class of committed instruction. (Count)
system.cpu0.commitStats0.committedInstType::SimdAes            0      0.00%     78.00% # Class of committed instruction. (Count)
system.cpu0.commitStats0.committedInstType::SimdAesMix            0      0.00%     78.00% # Class of committed instruction. (Count)
system.cpu0.commitStats0.committedInstType::SimdSha1Hash            0      0.00%     78.00% # Class of committed instruction. (Count)
system.cpu0.commitStats0.committedInstType::SimdSha1Hash2            0      0.00%     78.00% # Class of committed instruction. (Count)
system.cpu0.commitStats0.committedInstType::SimdSha256Hash            0      0.00%     78.00% # Class of committed instruction. (Count)
system.cpu0.commitStats0.committedInstType::SimdSha256Hash2            0      0.00%     78.00% # Class of committed instruction. (Count)
system.cpu0.commitStats0.committedInstType::SimdShaSigma2            0      0.00%     78.00% # Class of committed instruction. (Count)
system.cpu0.commitStats0.committedInstType::SimdShaSigma3            0      0.00%     78.00% # Class of committed instruction. (Count)
system.cpu0.commitStats0.committedInstType::SimdPredAlu            0      0.00%     78.00% # Class of committed instruction. (Count)
system.cpu0.commitStats0.committedInstType::Matrix            0      0.00%     78.00% # Class of committed instruction. (Count)
system.cpu0.commitStats0.committedInstType::MatrixMov            0      0.00%     78.00% # Class of committed instruction. (Count)
system.cpu0.commitStats0.committedInstType::MatrixOP            0      0.00%     78.00% # Class of committed instruction. (Count)
system.cpu0.commitStats0.committedInstType::MemRead     28647711     10.21%     88.22% # Class of committed instruction. (Count)
system.cpu0.commitStats0.committedInstType::MemWrite     19756172      7.04%     95.26% # Class of committed instruction. (Count)
system.cpu0.commitStats0.committedInstType::FloatMemRead      9381991      3.35%     98.60% # Class of committed instruction. (Count)
system.cpu0.commitStats0.committedInstType::FloatMemWrite      3912583      1.40%    100.00% # Class of committed instruction. (Count)
system.cpu0.commitStats0.committedInstType::IprAccess            0      0.00%    100.00% # Class of committed instruction. (Count)
system.cpu0.commitStats0.committedInstType::InstPrefetch            0      0.00%    100.00% # Class of committed instruction. (Count)
system.cpu0.commitStats0.committedInstType::VectorUnitStrideLoad            0      0.00%    100.00% # Class of committed instruction. (Count)
system.cpu0.commitStats0.committedInstType::VectorUnitStrideStore            0      0.00%    100.00% # Class of committed instruction. (Count)
system.cpu0.commitStats0.committedInstType::VectorUnitStrideMaskLoad            0      0.00%    100.00% # Class of committed instruction. (Count)
system.cpu0.commitStats0.committedInstType::VectorUnitStrideMaskStore            0      0.00%    100.00% # Class of committed instruction. (Count)
system.cpu0.commitStats0.committedInstType::VectorStridedLoad            0      0.00%    100.00% # Class of committed instruction. (Count)
system.cpu0.commitStats0.committedInstType::VectorStridedStore            0      0.00%    100.00% # Class of committed instruction. (Count)
system.cpu0.commitStats0.committedInstType::VectorIndexedLoad            0      0.00%    100.00% # Class of committed instruction. (Count)
system.cpu0.commitStats0.committedInstType::VectorIndexedStore            0      0.00%    100.00% # Class of committed instruction. (Count)
system.cpu0.commitStats0.committedInstType::VectorUnitStrideFaultOnlyFirstLoad            0      0.00%    100.00% # Class of committed instruction. (Count)
system.cpu0.commitStats0.committedInstType::VectorWholeRegisterLoad            0      0.00%    100.00% # Class of committed instruction. (Count)
system.cpu0.commitStats0.committedInstType::VectorWholeRegisterStore            0      0.00%    100.00% # Class of committed instruction. (Count)
system.cpu0.commitStats0.committedInstType::VectorIntegerArith            0      0.00%    100.00% # Class of committed instruction. (Count)
system.cpu0.commitStats0.committedInstType::VectorFloatArith            0      0.00%    100.00% # Class of committed instruction. (Count)
system.cpu0.commitStats0.committedInstType::VectorFloatConvert            0      0.00%    100.00% # Class of committed instruction. (Count)
system.cpu0.commitStats0.committedInstType::VectorIntegerReduce            0      0.00%    100.00% # Class of committed instruction. (Count)
system.cpu0.commitStats0.committedInstType::VectorFloatReduce            0      0.00%    100.00% # Class of committed instruction. (Count)
system.cpu0.commitStats0.committedInstType::VectorMisc            0      0.00%    100.00% # Class of committed instruction. (Count)
system.cpu0.commitStats0.committedInstType::VectorIntegerExtension            0      0.00%    100.00% # Class of committed instruction. (Count)
system.cpu0.commitStats0.committedInstType::VectorConfig            0      0.00%    100.00% # Class of committed instruction. (Count)
system.cpu0.commitStats0.committedInstType::total    280463744                       # Class of committed instruction. (Count)
system.cpu0.commitStats0.committedControl::IsControl     25617290                       # Class of control type instructions committed (Count)
system.cpu0.commitStats0.committedControl::IsDirectControl     21288065                       # Class of control type instructions committed (Count)
system.cpu0.commitStats0.committedControl::IsIndirectControl      4329211                       # Class of control type instructions committed (Count)
system.cpu0.commitStats0.committedControl::IsCondControl     17871291                       # Class of control type instructions committed (Count)
system.cpu0.commitStats0.committedControl::IsUncondControl      7745985                       # Class of control type instructions committed (Count)
system.cpu0.commitStats0.committedControl::IsCall      2519565                       # Class of control type instructions committed (Count)
system.cpu0.commitStats0.committedControl::IsReturn      2519561                       # Class of control type instructions committed (Count)
system.cpu0.dcache.demandHits::cpu0.data     59817374                       # number of demand (read+write) hits (Count)
system.cpu0.dcache.demandHits::total         59817374                       # number of demand (read+write) hits (Count)
system.cpu0.dcache.overallHits::cpu0.data     60525242                       # number of overall hits (Count)
system.cpu0.dcache.overallHits::total        60525242                       # number of overall hits (Count)
system.cpu0.dcache.demandMisses::cpu0.data       222820                       # number of demand (read+write) misses (Count)
system.cpu0.dcache.demandMisses::total         222820                       # number of demand (read+write) misses (Count)
system.cpu0.dcache.overallMisses::cpu0.data       222822                       # number of overall misses (Count)
system.cpu0.dcache.overallMisses::total        222822                       # number of overall misses (Count)
system.cpu0.dcache.demandMissLatency::cpu0.data 262215485250                       # number of demand (read+write) miss ticks (Tick)
system.cpu0.dcache.demandMissLatency::total 262215485250                       # number of demand (read+write) miss ticks (Tick)
system.cpu0.dcache.overallMissLatency::cpu0.data 262215485250                       # number of overall miss ticks (Tick)
system.cpu0.dcache.overallMissLatency::total 262215485250                       # number of overall miss ticks (Tick)
system.cpu0.dcache.demandAccesses::cpu0.data     60040194                       # number of demand (read+write) accesses (Count)
system.cpu0.dcache.demandAccesses::total     60040194                       # number of demand (read+write) accesses (Count)
system.cpu0.dcache.overallAccesses::cpu0.data     60748064                       # number of overall (read+write) accesses (Count)
system.cpu0.dcache.overallAccesses::total     60748064                       # number of overall (read+write) accesses (Count)
system.cpu0.dcache.demandMissRate::cpu0.data     0.003711                       # miss rate for demand accesses (Ratio)
system.cpu0.dcache.demandMissRate::total     0.003711                       # miss rate for demand accesses (Ratio)
system.cpu0.dcache.overallMissRate::cpu0.data     0.003668                       # miss rate for overall accesses (Ratio)
system.cpu0.dcache.overallMissRate::total     0.003668                       # miss rate for overall accesses (Ratio)
system.cpu0.dcache.demandAvgMissLatency::cpu0.data 1176804.080648                       # average overall miss latency in ticks ((Tick/Count))
system.cpu0.dcache.demandAvgMissLatency::total 1176804.080648                       # average overall miss latency in ticks ((Tick/Count))
system.cpu0.dcache.overallAvgMissLatency::cpu0.data 1176793.517920                       # average overall miss latency ((Tick/Count))
system.cpu0.dcache.overallAvgMissLatency::total 1176793.517920                       # average overall miss latency ((Tick/Count))
system.cpu0.dcache.blockedCycles::no_mshrs            0                       # number of cycles access was blocked (Cycle)
system.cpu0.dcache.blockedCycles::no_targets            0                       # number of cycles access was blocked (Cycle)
system.cpu0.dcache.blockedCauses::no_mshrs            0                       # number of times access was blocked (Count)
system.cpu0.dcache.blockedCauses::no_targets            0                       # number of times access was blocked (Count)
system.cpu0.dcache.avgBlocked::no_mshrs           nan                       # average number of cycles each access was blocked ((Cycle/Count))
system.cpu0.dcache.avgBlocked::no_targets          nan                       # average number of cycles each access was blocked ((Cycle/Count))
system.cpu0.dcache.writebacks::writebacks       174448                       # number of writebacks (Count)
system.cpu0.dcache.writebacks::total           174448                       # number of writebacks (Count)
system.cpu0.dcache.demandMshrMisses::cpu0.data       222820                       # number of demand (read+write) MSHR misses (Count)
system.cpu0.dcache.demandMshrMisses::total       222820                       # number of demand (read+write) MSHR misses (Count)
system.cpu0.dcache.overallMshrMisses::cpu0.data       222822                       # number of overall MSHR misses (Count)
system.cpu0.dcache.overallMshrMisses::total       222822                       # number of overall MSHR misses (Count)
system.cpu0.dcache.demandMshrMissLatency::cpu0.data 262104075250                       # number of demand (read+write) MSHR miss ticks (Tick)
system.cpu0.dcache.demandMshrMissLatency::total 262104075250                       # number of demand (read+write) MSHR miss ticks (Tick)
system.cpu0.dcache.overallMshrMissLatency::cpu0.data 262104087250                       # number of overall MSHR miss ticks (Tick)
system.cpu0.dcache.overallMshrMissLatency::total 262104087250                       # number of overall MSHR miss ticks (Tick)
system.cpu0.dcache.demandMshrMissRate::cpu0.data     0.003711                       # mshr miss ratio for demand accesses (Ratio)
system.cpu0.dcache.demandMshrMissRate::total     0.003711                       # mshr miss ratio for demand accesses (Ratio)
system.cpu0.dcache.overallMshrMissRate::cpu0.data     0.003668                       # mshr miss ratio for overall accesses (Ratio)
system.cpu0.dcache.overallMshrMissRate::total     0.003668                       # mshr miss ratio for overall accesses (Ratio)
system.cpu0.dcache.demandAvgMshrMissLatency::cpu0.data 1176304.080648                       # average overall mshr miss latency ((Tick/Count))
system.cpu0.dcache.demandAvgMshrMissLatency::total 1176304.080648                       # average overall mshr miss latency ((Tick/Count))
system.cpu0.dcache.overallAvgMshrMissLatency::cpu0.data 1176293.576263                       # average overall mshr miss latency ((Tick/Count))
system.cpu0.dcache.overallAvgMshrMissLatency::total 1176293.576263                       # average overall mshr miss latency ((Tick/Count))
system.cpu0.dcache.replacements                221798                       # number of replacements (Count)
system.cpu0.dcache.ReadReq.hits::cpu0.data     37707015                       # number of ReadReq hits (Count)
system.cpu0.dcache.ReadReq.hits::total       37707015                       # number of ReadReq hits (Count)
system.cpu0.dcache.ReadReq.misses::cpu0.data        74832                       # number of ReadReq misses (Count)
system.cpu0.dcache.ReadReq.misses::total        74832                       # number of ReadReq misses (Count)
system.cpu0.dcache.ReadReq.missLatency::cpu0.data 210753676500                       # number of ReadReq miss ticks (Tick)
system.cpu0.dcache.ReadReq.missLatency::total 210753676500                       # number of ReadReq miss ticks (Tick)
system.cpu0.dcache.ReadReq.accesses::cpu0.data     37781847                       # number of ReadReq accesses(hits+misses) (Count)
system.cpu0.dcache.ReadReq.accesses::total     37781847                       # number of ReadReq accesses(hits+misses) (Count)
system.cpu0.dcache.ReadReq.missRate::cpu0.data     0.001981                       # miss rate for ReadReq accesses (Ratio)
system.cpu0.dcache.ReadReq.missRate::total     0.001981                       # miss rate for ReadReq accesses (Ratio)
system.cpu0.dcache.ReadReq.avgMissLatency::cpu0.data 2816357.661161                       # average ReadReq miss latency ((Tick/Count))
system.cpu0.dcache.ReadReq.avgMissLatency::total 2816357.661161                       # average ReadReq miss latency ((Tick/Count))
system.cpu0.dcache.ReadReq.mshrMisses::cpu0.data        74832                       # number of ReadReq MSHR misses (Count)
system.cpu0.dcache.ReadReq.mshrMisses::total        74832                       # number of ReadReq MSHR misses (Count)
system.cpu0.dcache.ReadReq.mshrMissLatency::cpu0.data 210716260500                       # number of ReadReq MSHR miss ticks (Tick)
system.cpu0.dcache.ReadReq.mshrMissLatency::total 210716260500                       # number of ReadReq MSHR miss ticks (Tick)
system.cpu0.dcache.ReadReq.mshrMissRate::cpu0.data     0.001981                       # mshr miss rate for ReadReq accesses (Ratio)
system.cpu0.dcache.ReadReq.mshrMissRate::total     0.001981                       # mshr miss rate for ReadReq accesses (Ratio)
system.cpu0.dcache.ReadReq.avgMshrMissLatency::cpu0.data 2815857.661161                       # average ReadReq mshr miss latency ((Tick/Count))
system.cpu0.dcache.ReadReq.avgMshrMissLatency::total 2815857.661161                       # average ReadReq mshr miss latency ((Tick/Count))
system.cpu0.dcache.SoftPFReq.hits::cpu0.data       707868                       # number of SoftPFReq hits (Count)
system.cpu0.dcache.SoftPFReq.hits::total       707868                       # number of SoftPFReq hits (Count)
system.cpu0.dcache.SoftPFReq.misses::cpu0.data            2                       # number of SoftPFReq misses (Count)
system.cpu0.dcache.SoftPFReq.misses::total            2                       # number of SoftPFReq misses (Count)
system.cpu0.dcache.SoftPFReq.accesses::cpu0.data       707870                       # number of SoftPFReq accesses(hits+misses) (Count)
system.cpu0.dcache.SoftPFReq.accesses::total       707870                       # number of SoftPFReq accesses(hits+misses) (Count)
system.cpu0.dcache.SoftPFReq.missRate::cpu0.data     0.000003                       # miss rate for SoftPFReq accesses (Ratio)
system.cpu0.dcache.SoftPFReq.missRate::total     0.000003                       # miss rate for SoftPFReq accesses (Ratio)
system.cpu0.dcache.SoftPFReq.mshrMisses::cpu0.data            2                       # number of SoftPFReq MSHR misses (Count)
system.cpu0.dcache.SoftPFReq.mshrMisses::total            2                       # number of SoftPFReq MSHR misses (Count)
system.cpu0.dcache.SoftPFReq.mshrMissLatency::cpu0.data        12000                       # number of SoftPFReq MSHR miss ticks (Tick)
system.cpu0.dcache.SoftPFReq.mshrMissLatency::total        12000                       # number of SoftPFReq MSHR miss ticks (Tick)
system.cpu0.dcache.SoftPFReq.mshrMissRate::cpu0.data     0.000003                       # mshr miss rate for SoftPFReq accesses (Ratio)
system.cpu0.dcache.SoftPFReq.mshrMissRate::total     0.000003                       # mshr miss rate for SoftPFReq accesses (Ratio)
system.cpu0.dcache.SoftPFReq.avgMshrMissLatency::cpu0.data         6000                       # average SoftPFReq mshr miss latency ((Tick/Count))
system.cpu0.dcache.SoftPFReq.avgMshrMissLatency::total         6000                       # average SoftPFReq mshr miss latency ((Tick/Count))
system.cpu0.dcache.WriteReq.hits::cpu0.data     22110359                       # number of WriteReq hits (Count)
system.cpu0.dcache.WriteReq.hits::total      22110359                       # number of WriteReq hits (Count)
system.cpu0.dcache.WriteReq.misses::cpu0.data       147988                       # number of WriteReq misses (Count)
system.cpu0.dcache.WriteReq.misses::total       147988                       # number of WriteReq misses (Count)
system.cpu0.dcache.WriteReq.missLatency::cpu0.data  51461808750                       # number of WriteReq miss ticks (Tick)
system.cpu0.dcache.WriteReq.missLatency::total  51461808750                       # number of WriteReq miss ticks (Tick)
system.cpu0.dcache.WriteReq.accesses::cpu0.data     22258347                       # number of WriteReq accesses(hits+misses) (Count)
system.cpu0.dcache.WriteReq.accesses::total     22258347                       # number of WriteReq accesses(hits+misses) (Count)
system.cpu0.dcache.WriteReq.missRate::cpu0.data     0.006649                       # miss rate for WriteReq accesses (Ratio)
system.cpu0.dcache.WriteReq.missRate::total     0.006649                       # miss rate for WriteReq accesses (Ratio)
system.cpu0.dcache.WriteReq.avgMissLatency::cpu0.data 347743.119375                       # average WriteReq miss latency ((Tick/Count))
system.cpu0.dcache.WriteReq.avgMissLatency::total 347743.119375                       # average WriteReq miss latency ((Tick/Count))
system.cpu0.dcache.WriteReq.mshrMisses::cpu0.data       147988                       # number of WriteReq MSHR misses (Count)
system.cpu0.dcache.WriteReq.mshrMisses::total       147988                       # number of WriteReq MSHR misses (Count)
system.cpu0.dcache.WriteReq.mshrMissLatency::cpu0.data  51387814750                       # number of WriteReq MSHR miss ticks (Tick)
system.cpu0.dcache.WriteReq.mshrMissLatency::total  51387814750                       # number of WriteReq MSHR miss ticks (Tick)
system.cpu0.dcache.WriteReq.mshrMissRate::cpu0.data     0.006649                       # mshr miss rate for WriteReq accesses (Ratio)
system.cpu0.dcache.WriteReq.mshrMissRate::total     0.006649                       # mshr miss rate for WriteReq accesses (Ratio)
system.cpu0.dcache.WriteReq.avgMshrMissLatency::cpu0.data 347243.119375                       # average WriteReq mshr miss latency ((Tick/Count))
system.cpu0.dcache.WriteReq.avgMshrMissLatency::total 347243.119375                       # average WriteReq mshr miss latency ((Tick/Count))
system.cpu0.dcache.power_state.pwrStateResidencyTicks::UNDEFINED 389464257250                       # Cumulative time (in ticks) in various power states (Tick)
system.cpu0.dcache.tags.tagsInUse         1023.015309                       # Average ticks per tags in use ((Tick/Count))
system.cpu0.dcache.tags.totalRefs            60748064                       # Total number of references to valid blocks. (Count)
system.cpu0.dcache.tags.sampledRefs            222822                       # Sample count of references to valid blocks. (Count)
system.cpu0.dcache.tags.avgRefs            272.630458                       # Average number of references to valid blocks. ((Count/Count))
system.cpu0.dcache.tags.warmupTick            1263250                       # The tick when the warmup percentage was hit. (Tick)
system.cpu0.dcache.tags.occupancies::cpu0.data  1023.015309                       # Average occupied blocks per tick, per requestor ((Count/Tick))
system.cpu0.dcache.tags.avgOccs::cpu0.data     0.999038                       # Average percentage of cache occupancy ((Ratio/Tick))
system.cpu0.dcache.tags.avgOccs::total       0.999038                       # Average percentage of cache occupancy ((Ratio/Tick))
system.cpu0.dcache.tags.occupanciesTaskId::1024         1024                       # Occupied blocks per task id (Count)
system.cpu0.dcache.tags.ageTaskId_1024::0            5                       # Occupied blocks per task id, per block age (Count)
system.cpu0.dcache.tags.ageTaskId_1024::1            8                       # Occupied blocks per task id, per block age (Count)
system.cpu0.dcache.tags.ageTaskId_1024::2          313                       # Occupied blocks per task id, per block age (Count)
system.cpu0.dcache.tags.ageTaskId_1024::3          694                       # Occupied blocks per task id, per block age (Count)
system.cpu0.dcache.tags.ageTaskId_1024::4            4                       # Occupied blocks per task id, per block age (Count)
system.cpu0.dcache.tags.ratioOccsTaskId::1024            1                       # Ratio of occupied blocks and all blocks, per task id (Ratio)
system.cpu0.dcache.tags.tagAccesses         121718950                       # Number of tag accesses (Count)
system.cpu0.dcache.tags.dataAccesses        121718950                       # Number of data accesses (Count)
system.cpu0.dcache.tags.power_state.pwrStateResidencyTicks::UNDEFINED 389464257250                       # Cumulative time (in ticks) in various power states (Tick)
system.cpu0.dtb_walker_cache.blockedCycles::no_mshrs            0                       # number of cycles access was blocked (Cycle)
system.cpu0.dtb_walker_cache.blockedCycles::no_targets            0                       # number of cycles access was blocked (Cycle)
system.cpu0.dtb_walker_cache.blockedCauses::no_mshrs            0                       # number of times access was blocked (Count)
system.cpu0.dtb_walker_cache.blockedCauses::no_targets            0                       # number of times access was blocked (Count)
system.cpu0.dtb_walker_cache.avgBlocked::no_mshrs          nan                       # average number of cycles each access was blocked ((Cycle/Count))
system.cpu0.dtb_walker_cache.avgBlocked::no_targets          nan                       # average number of cycles each access was blocked ((Cycle/Count))
system.cpu0.dtb_walker_cache.replacements            0                       # number of replacements (Count)
system.cpu0.dtb_walker_cache.power_state.pwrStateResidencyTicks::UNDEFINED 389464257250                       # Cumulative time (in ticks) in various power states (Tick)
system.cpu0.dtb_walker_cache.tags.tagsInUse            0                       # Average ticks per tags in use ((Tick/Count))
system.cpu0.dtb_walker_cache.tags.totalRefs            0                       # Total number of references to valid blocks. (Count)
system.cpu0.dtb_walker_cache.tags.sampledRefs            0                       # Sample count of references to valid blocks. (Count)
system.cpu0.dtb_walker_cache.tags.avgRefs          nan                       # Average number of references to valid blocks. ((Count/Count))
system.cpu0.dtb_walker_cache.tags.warmupTick            0                       # The tick when the warmup percentage was hit. (Tick)
system.cpu0.dtb_walker_cache.tags.tagAccesses            0                       # Number of tag accesses (Count)
system.cpu0.dtb_walker_cache.tags.dataAccesses            0                       # Number of data accesses (Count)
system.cpu0.dtb_walker_cache.tags.power_state.pwrStateResidencyTicks::UNDEFINED 389464257250                       # Cumulative time (in ticks) in various power states (Tick)
system.cpu0.exec_context.thread_0.numMatAluAccesses            0                       # Number of matrix alu accesses (Count)
system.cpu0.exec_context.thread_0.numCallsReturns      5039126                       # Number of times a function call or return occured (Count)
system.cpu0.exec_context.thread_0.numMatInsts            0                       # Number of matrix instructions (Count)
system.cpu0.exec_context.thread_0.numIdleCycles     0.004000                       # Number of idle cycles (Cycle)
system.cpu0.exec_context.thread_0.numBusyCycles 1557857028.996000                       # Number of busy cycles (Cycle)
system.cpu0.exec_context.thread_0.notIdleFraction     1.000000                       # Percentage of non-idle cycles (Ratio)
system.cpu0.exec_context.thread_0.idleFraction     0.000000                       # Percentage of idle cycles (Ratio)
system.cpu0.executeStats0.numInsts                  0                       # Number of executed instructions (Count)
system.cpu0.executeStats0.numNop                    0                       # Number of nop insts executed (Count)
system.cpu0.executeStats0.numBranches               0                       # Number of branches executed (Count)
system.cpu0.executeStats0.numLoadInsts              0                       # Number of load instructions executed (Count)
system.cpu0.executeStats0.numStoreInsts      61698457                       # Number of stores executed (Count)
system.cpu0.executeStats0.instRate                  0                       # Inst execution rate ((Count/Cycle))
system.cpu0.executeStats0.numFpAluAccesses     31175343                       # Number of float alu accesses (Count)
system.cpu0.executeStats0.numFpRegReads      41925608                       # Number of times the floating registers were read (Count)
system.cpu0.executeStats0.numFpRegWrites     24254658                       # Number of times the floating registers were written (Count)
system.cpu0.executeStats0.numIntAluAccesses    262890099                       # Number of integer alu accesses (Count)
system.cpu0.executeStats0.numIntRegReads    355998763                       # Number of times the integer registers were read (Count)
system.cpu0.executeStats0.numIntRegWrites    187491729                       # Number of times the integer registers were written (Count)
system.cpu0.executeStats0.numMemRefs         61698457                       # Number of memory refs (Count)
system.cpu0.executeStats0.numMiscRegReads    114182002                       # Number of times the Misc registers were read (Count)
system.cpu0.executeStats0.numMiscRegWrites           18                       # Number of times the Misc registers were written (Count)
system.cpu0.executeStats0.numVecAluAccesses            0                       # Number of vector alu accesses (Count)
system.cpu0.executeStats0.numDiscardedOps            0                       # Number of ops (including micro ops) which were discarded before commit (Count)
system.cpu0.fetchStats0.numInsts            139994751                       # Number of instructions fetched (thread level) (Count)
system.cpu0.fetchStats0.numOps              280463744                       # Number of ops (including micro ops) fetched (thread level) (Count)
system.cpu0.fetchStats0.fetchRate            0.089864                       # Number of inst fetches per cycle ((Count/Cycle))
system.cpu0.fetchStats0.numBranches          25617290                       # Number of branches fetched (Count)
system.cpu0.fetchStats0.branchRate           0.016444                       # Number of branch fetches per cycle (Ratio)
system.cpu0.fetchStats0.numFetchSuspends            0                       # Number of times Execute suspended instruction fetching (Count)
system.cpu0.icache.demandHits::cpu0.inst    192856795                       # number of demand (read+write) hits (Count)
system.cpu0.icache.demandHits::total        192856795                       # number of demand (read+write) hits (Count)
system.cpu0.icache.overallHits::cpu0.inst    192856795                       # number of overall hits (Count)
system.cpu0.icache.overallHits::total       192856795                       # number of overall hits (Count)
system.cpu0.icache.demandMisses::cpu0.inst        11723                       # number of demand (read+write) misses (Count)
system.cpu0.icache.demandMisses::total          11723                       # number of demand (read+write) misses (Count)
system.cpu0.icache.overallMisses::cpu0.inst        11723                       # number of overall misses (Count)
system.cpu0.icache.overallMisses::total         11723                       # number of overall misses (Count)
system.cpu0.icache.demandMissLatency::cpu0.inst    676658750                       # number of demand (read+write) miss ticks (Tick)
system.cpu0.icache.demandMissLatency::total    676658750                       # number of demand (read+write) miss ticks (Tick)
system.cpu0.icache.overallMissLatency::cpu0.inst    676658750                       # number of overall miss ticks (Tick)
system.cpu0.icache.overallMissLatency::total    676658750                       # number of overall miss ticks (Tick)
system.cpu0.icache.demandAccesses::cpu0.inst    192868518                       # number of demand (read+write) accesses (Count)
system.cpu0.icache.demandAccesses::total    192868518                       # number of demand (read+write) accesses (Count)
system.cpu0.icache.overallAccesses::cpu0.inst    192868518                       # number of overall (read+write) accesses (Count)
system.cpu0.icache.overallAccesses::total    192868518                       # number of overall (read+write) accesses (Count)
system.cpu0.icache.demandMissRate::cpu0.inst     0.000061                       # miss rate for demand accesses (Ratio)
system.cpu0.icache.demandMissRate::total     0.000061                       # miss rate for demand accesses (Ratio)
system.cpu0.icache.overallMissRate::cpu0.inst     0.000061                       # miss rate for overall accesses (Ratio)
system.cpu0.icache.overallMissRate::total     0.000061                       # miss rate for overall accesses (Ratio)
system.cpu0.icache.demandAvgMissLatency::cpu0.inst 57720.613324                       # average overall miss latency in ticks ((Tick/Count))
system.cpu0.icache.demandAvgMissLatency::total 57720.613324                       # average overall miss latency in ticks ((Tick/Count))
system.cpu0.icache.overallAvgMissLatency::cpu0.inst 57720.613324                       # average overall miss latency ((Tick/Count))
system.cpu0.icache.overallAvgMissLatency::total 57720.613324                       # average overall miss latency ((Tick/Count))
system.cpu0.icache.blockedCycles::no_mshrs            0                       # number of cycles access was blocked (Cycle)
system.cpu0.icache.blockedCycles::no_targets            0                       # number of cycles access was blocked (Cycle)
system.cpu0.icache.blockedCauses::no_mshrs            0                       # number of times access was blocked (Count)
system.cpu0.icache.blockedCauses::no_targets            0                       # number of times access was blocked (Count)
system.cpu0.icache.avgBlocked::no_mshrs           nan                       # average number of cycles each access was blocked ((Cycle/Count))
system.cpu0.icache.avgBlocked::no_targets          nan                       # average number of cycles each access was blocked ((Cycle/Count))
system.cpu0.icache.writebacks::writebacks        11467                       # number of writebacks (Count)
system.cpu0.icache.writebacks::total            11467                       # number of writebacks (Count)
system.cpu0.icache.demandMshrMisses::cpu0.inst        11723                       # number of demand (read+write) MSHR misses (Count)
system.cpu0.icache.demandMshrMisses::total        11723                       # number of demand (read+write) MSHR misses (Count)
system.cpu0.icache.overallMshrMisses::cpu0.inst        11723                       # number of overall MSHR misses (Count)
system.cpu0.icache.overallMshrMisses::total        11723                       # number of overall MSHR misses (Count)
system.cpu0.icache.demandMshrMissLatency::cpu0.inst    670797250                       # number of demand (read+write) MSHR miss ticks (Tick)
system.cpu0.icache.demandMshrMissLatency::total    670797250                       # number of demand (read+write) MSHR miss ticks (Tick)
system.cpu0.icache.overallMshrMissLatency::cpu0.inst    670797250                       # number of overall MSHR miss ticks (Tick)
system.cpu0.icache.overallMshrMissLatency::total    670797250                       # number of overall MSHR miss ticks (Tick)
system.cpu0.icache.demandMshrMissRate::cpu0.inst     0.000061                       # mshr miss ratio for demand accesses (Ratio)
system.cpu0.icache.demandMshrMissRate::total     0.000061                       # mshr miss ratio for demand accesses (Ratio)
system.cpu0.icache.overallMshrMissRate::cpu0.inst     0.000061                       # mshr miss ratio for overall accesses (Ratio)
system.cpu0.icache.overallMshrMissRate::total     0.000061                       # mshr miss ratio for overall accesses (Ratio)
system.cpu0.icache.demandAvgMshrMissLatency::cpu0.inst 57220.613324                       # average overall mshr miss latency ((Tick/Count))
system.cpu0.icache.demandAvgMshrMissLatency::total 57220.613324                       # average overall mshr miss latency ((Tick/Count))
system.cpu0.icache.overallAvgMshrMissLatency::cpu0.inst 57220.613324                       # average overall mshr miss latency ((Tick/Count))
system.cpu0.icache.overallAvgMshrMissLatency::total 57220.613324                       # average overall mshr miss latency ((Tick/Count))
system.cpu0.icache.replacements                 11467                       # number of replacements (Count)
system.cpu0.icache.ReadReq.hits::cpu0.inst    192856795                       # number of ReadReq hits (Count)
system.cpu0.icache.ReadReq.hits::total      192856795                       # number of ReadReq hits (Count)
system.cpu0.icache.ReadReq.misses::cpu0.inst        11723                       # number of ReadReq misses (Count)
system.cpu0.icache.ReadReq.misses::total        11723                       # number of ReadReq misses (Count)
system.cpu0.icache.ReadReq.missLatency::cpu0.inst    676658750                       # number of ReadReq miss ticks (Tick)
system.cpu0.icache.ReadReq.missLatency::total    676658750                       # number of ReadReq miss ticks (Tick)
system.cpu0.icache.ReadReq.accesses::cpu0.inst    192868518                       # number of ReadReq accesses(hits+misses) (Count)
system.cpu0.icache.ReadReq.accesses::total    192868518                       # number of ReadReq accesses(hits+misses) (Count)
system.cpu0.icache.ReadReq.missRate::cpu0.inst     0.000061                       # miss rate for ReadReq accesses (Ratio)
system.cpu0.icache.ReadReq.missRate::total     0.000061                       # miss rate for ReadReq accesses (Ratio)
system.cpu0.icache.ReadReq.avgMissLatency::cpu0.inst 57720.613324                       # average ReadReq miss latency ((Tick/Count))
system.cpu0.icache.ReadReq.avgMissLatency::total 57720.613324                       # average ReadReq miss latency ((Tick/Count))
system.cpu0.icache.ReadReq.mshrMisses::cpu0.inst        11723                       # number of ReadReq MSHR misses (Count)
system.cpu0.icache.ReadReq.mshrMisses::total        11723                       # number of ReadReq MSHR misses (Count)
system.cpu0.icache.ReadReq.mshrMissLatency::cpu0.inst    670797250                       # number of ReadReq MSHR miss ticks (Tick)
system.cpu0.icache.ReadReq.mshrMissLatency::total    670797250                       # number of ReadReq MSHR miss ticks (Tick)
system.cpu0.icache.ReadReq.mshrMissRate::cpu0.inst     0.000061                       # mshr miss rate for ReadReq accesses (Ratio)
system.cpu0.icache.ReadReq.mshrMissRate::total     0.000061                       # mshr miss rate for ReadReq accesses (Ratio)
system.cpu0.icache.ReadReq.avgMshrMissLatency::cpu0.inst 57220.613324                       # average ReadReq mshr miss latency ((Tick/Count))
system.cpu0.icache.ReadReq.avgMshrMissLatency::total 57220.613324                       # average ReadReq mshr miss latency ((Tick/Count))
system.cpu0.icache.power_state.pwrStateResidencyTicks::UNDEFINED 389464257250                       # Cumulative time (in ticks) in various power states (Tick)
system.cpu0.icache.tags.tagsInUse          255.914626                       # Average ticks per tags in use ((Tick/Count))
system.cpu0.icache.tags.totalRefs           192868518                       # Total number of references to valid blocks. (Count)
system.cpu0.icache.tags.sampledRefs             11723                       # Sample count of references to valid blocks. (Count)
system.cpu0.icache.tags.avgRefs          16452.146891                       # Average number of references to valid blocks. ((Count/Count))
system.cpu0.icache.tags.warmupTick             631250                       # The tick when the warmup percentage was hit. (Tick)
system.cpu0.icache.tags.occupancies::cpu0.inst   255.914626                       # Average occupied blocks per tick, per requestor ((Count/Tick))
system.cpu0.icache.tags.avgOccs::cpu0.inst     0.999667                       # Average percentage of cache occupancy ((Ratio/Tick))
system.cpu0.icache.tags.avgOccs::total       0.999667                       # Average percentage of cache occupancy ((Ratio/Tick))
system.cpu0.icache.tags.occupanciesTaskId::1024          256                       # Occupied blocks per task id (Count)
system.cpu0.icache.tags.ageTaskId_1024::0           25                       # Occupied blocks per task id, per block age (Count)
system.cpu0.icache.tags.ageTaskId_1024::1            2                       # Occupied blocks per task id, per block age (Count)
system.cpu0.icache.tags.ageTaskId_1024::2          115                       # Occupied blocks per task id, per block age (Count)
system.cpu0.icache.tags.ageTaskId_1024::4          114                       # Occupied blocks per task id, per block age (Count)
system.cpu0.icache.tags.ratioOccsTaskId::1024            1                       # Ratio of occupied blocks and all blocks, per task id (Ratio)
system.cpu0.icache.tags.tagAccesses         385748759                       # Number of tag accesses (Count)
system.cpu0.icache.tags.dataAccesses        385748759                       # Number of data accesses (Count)
system.cpu0.icache.tags.power_state.pwrStateResidencyTicks::UNDEFINED 389464257250                       # Cumulative time (in ticks) in various power states (Tick)
system.cpu0.interrupts.clk_domain.clock          4000                       # Clock period in ticks (Tick)
system.cpu0.itb_walker_cache.blockedCycles::no_mshrs            0                       # number of cycles access was blocked (Cycle)
system.cpu0.itb_walker_cache.blockedCycles::no_targets            0                       # number of cycles access was blocked (Cycle)
system.cpu0.itb_walker_cache.blockedCauses::no_mshrs            0                       # number of times access was blocked (Count)
system.cpu0.itb_walker_cache.blockedCauses::no_targets            0                       # number of times access was blocked (Count)
system.cpu0.itb_walker_cache.avgBlocked::no_mshrs          nan                       # average number of cycles each access was blocked ((Cycle/Count))
system.cpu0.itb_walker_cache.avgBlocked::no_targets          nan                       # average number of cycles each access was blocked ((Cycle/Count))
system.cpu0.itb_walker_cache.replacements            0                       # number of replacements (Count)
system.cpu0.itb_walker_cache.power_state.pwrStateResidencyTicks::UNDEFINED 389464257250                       # Cumulative time (in ticks) in various power states (Tick)
system.cpu0.itb_walker_cache.tags.tagsInUse            0                       # Average ticks per tags in use ((Tick/Count))
system.cpu0.itb_walker_cache.tags.totalRefs            0                       # Total number of references to valid blocks. (Count)
system.cpu0.itb_walker_cache.tags.sampledRefs            0                       # Sample count of references to valid blocks. (Count)
system.cpu0.itb_walker_cache.tags.avgRefs          nan                       # Average number of references to valid blocks. ((Count/Count))
system.cpu0.itb_walker_cache.tags.warmupTick            0                       # The tick when the warmup percentage was hit. (Tick)
system.cpu0.itb_walker_cache.tags.tagAccesses            0                       # Number of tag accesses (Count)
system.cpu0.itb_walker_cache.tags.dataAccesses            0                       # Number of data accesses (Count)
system.cpu0.itb_walker_cache.tags.power_state.pwrStateResidencyTicks::UNDEFINED 389464257250                       # Cumulative time (in ticks) in various power states (Tick)
system.cpu0.mmu.dtb.rdAccesses               38489770                       # TLB accesses on read requests (Count)
system.cpu0.mmu.dtb.wrAccesses               23675994                       # TLB accesses on write requests (Count)
system.cpu0.mmu.dtb.rdMisses                     2297                       # TLB misses on read requests (Count)
system.cpu0.mmu.dtb.wrMisses                     4230                       # TLB misses on write requests (Count)
system.cpu0.mmu.dtb.walker.power_state.pwrStateResidencyTicks::UNDEFINED 389464257250                       # Cumulative time (in ticks) in various power states (Tick)
system.cpu0.mmu.itb.rdAccesses                      0                       # TLB accesses on read requests (Count)
system.cpu0.mmu.itb.wrAccesses              192868572                       # TLB accesses on write requests (Count)
system.cpu0.mmu.itb.rdMisses                        0                       # TLB misses on read requests (Count)
system.cpu0.mmu.itb.wrMisses                      182                       # TLB misses on write requests (Count)
system.cpu0.mmu.itb.walker.power_state.pwrStateResidencyTicks::UNDEFINED 389464257250                       # Cumulative time (in ticks) in various power states (Tick)
system.cpu0.power_state.pwrStateResidencyTicks::ON 389464257250                       # Cumulative time (in ticks) in various power states (Tick)
system.cpu0.thread_0.numInsts                       0                       # Number of Instructions committed (Count)
system.cpu0.thread_0.numOps                         0                       # Number of Ops committed (Count)
system.cpu0.thread_0.numMemRefs                     0                       # Number of Memory References (Count)
system.cpu0.workload.numSyscalls                 3438                       # Number of system calls (Count)
system.cpu1.numCycles                               0                       # Number of cpu cycles simulated (Cycle)
system.cpu1.cpi                                   nan                       # CPI: cycles per instruction (core level) ((Cycle/Count))
system.cpu1.ipc                                   nan                       # IPC: instructions per cycle (core level) ((Count/Cycle))
system.cpu1.numWorkItemsStarted                     0                       # Number of work items this cpu started (Count)
system.cpu1.numWorkItemsCompleted                   0                       # Number of work items this cpu completed (Count)
system.cpu1.commitStats0.numOps                     0                       # Number of ops (including micro ops) committed (thread level) (Count)
system.cpu1.commitStats0.numInstsNotNOP             0                       # Number of instructions committed excluding NOPs or prefetches (Count)
system.cpu1.commitStats0.numOpsNotNOP               0                       # Number of Ops (including micro ops) Simulated (Count)
system.cpu1.commitStats0.cpi                      nan                       # CPI: cycles per instruction (thread level) ((Cycle/Count))
system.cpu1.commitStats0.ipc                      nan                       # IPC: instructions per cycle (thread level) ((Count/Cycle))
system.cpu1.commitStats0.numMemRefs                 0                       # Number of memory references committed (Count)
system.cpu1.commitStats0.numFpInsts                 0                       # Number of float instructions (Count)
system.cpu1.commitStats0.numIntInsts                0                       # Number of integer instructions (Count)
system.cpu1.commitStats0.numLoadInsts               0                       # Number of load instructions (Count)
system.cpu1.commitStats0.numStoreInsts              0                       # Number of store instructions (Count)
system.cpu1.commitStats0.numVecInsts                0                       # Number of vector instructions (Count)
system.cpu1.commitStats0.committedInstType::No_OpClass            0                       # Class of committed instruction. (Count)
system.cpu1.commitStats0.committedInstType::IntAlu            0                       # Class of committed instruction. (Count)
system.cpu1.commitStats0.committedInstType::IntMult            0                       # Class of committed instruction. (Count)
system.cpu1.commitStats0.committedInstType::IntDiv            0                       # Class of committed instruction. (Count)
system.cpu1.commitStats0.committedInstType::FloatAdd            0                       # Class of committed instruction. (Count)
system.cpu1.commitStats0.committedInstType::FloatCmp            0                       # Class of committed instruction. (Count)
system.cpu1.commitStats0.committedInstType::FloatCvt            0                       # Class of committed instruction. (Count)
system.cpu1.commitStats0.committedInstType::FloatMult            0                       # Class of committed instruction. (Count)
system.cpu1.commitStats0.committedInstType::FloatMultAcc            0                       # Class of committed instruction. (Count)
system.cpu1.commitStats0.committedInstType::FloatDiv            0                       # Class of committed instruction. (Count)
system.cpu1.commitStats0.committedInstType::FloatMisc            0                       # Class of committed instruction. (Count)
system.cpu1.commitStats0.committedInstType::FloatSqrt            0                       # Class of committed instruction. (Count)
system.cpu1.commitStats0.committedInstType::SimdAdd            0                       # Class of committed instruction. (Count)
system.cpu1.commitStats0.committedInstType::SimdAddAcc            0                       # Class of committed instruction. (Count)
system.cpu1.commitStats0.committedInstType::SimdAlu            0                       # Class of committed instruction. (Count)
system.cpu1.commitStats0.committedInstType::SimdCmp            0                       # Class of committed instruction. (Count)
system.cpu1.commitStats0.committedInstType::SimdCvt            0                       # Class of committed instruction. (Count)
system.cpu1.commitStats0.committedInstType::SimdMisc            0                       # Class of committed instruction. (Count)
system.cpu1.commitStats0.committedInstType::SimdMult            0                       # Class of committed instruction. (Count)
system.cpu1.commitStats0.committedInstType::SimdMultAcc            0                       # Class of committed instruction. (Count)
system.cpu1.commitStats0.committedInstType::SimdMatMultAcc            0                       # Class of committed instruction. (Count)
system.cpu1.commitStats0.committedInstType::SimdShift            0                       # Class of committed instruction. (Count)
system.cpu1.commitStats0.committedInstType::SimdShiftAcc            0                       # Class of committed instruction. (Count)
system.cpu1.commitStats0.committedInstType::SimdDiv            0                       # Class of committed instruction. (Count)
system.cpu1.commitStats0.committedInstType::SimdSqrt            0                       # Class of committed instruction. (Count)
system.cpu1.commitStats0.committedInstType::SimdFloatAdd            0                       # Class of committed instruction. (Count)
system.cpu1.commitStats0.committedInstType::SimdFloatAlu            0                       # Class of committed instruction. (Count)
system.cpu1.commitStats0.committedInstType::SimdFloatCmp            0                       # Class of committed instruction. (Count)
system.cpu1.commitStats0.committedInstType::SimdFloatCvt            0                       # Class of committed instruction. (Count)
system.cpu1.commitStats0.committedInstType::SimdFloatDiv            0                       # Class of committed instruction. (Count)
system.cpu1.commitStats0.committedInstType::SimdFloatMisc            0                       # Class of committed instruction. (Count)
system.cpu1.commitStats0.committedInstType::SimdFloatMult            0                       # Class of committed instruction. (Count)
system.cpu1.commitStats0.committedInstType::SimdFloatMultAcc            0                       # Class of committed instruction. (Count)
system.cpu1.commitStats0.committedInstType::SimdFloatMatMultAcc            0                       # Class of committed instruction. (Count)
system.cpu1.commitStats0.committedInstType::SimdFloatSqrt            0                       # Class of committed instruction. (Count)
system.cpu1.commitStats0.committedInstType::SimdReduceAdd            0                       # Class of committed instruction. (Count)
system.cpu1.commitStats0.committedInstType::SimdReduceAlu            0                       # Class of committed instruction. (Count)
system.cpu1.commitStats0.committedInstType::SimdReduceCmp            0                       # Class of committed instruction. (Count)
system.cpu1.commitStats0.committedInstType::SimdFloatReduceAdd            0                       # Class of committed instruction. (Count)
system.cpu1.commitStats0.committedInstType::SimdFloatReduceCmp            0                       # Class of committed instruction. (Count)
system.cpu1.commitStats0.committedInstType::SimdAes            0                       # Class of committed instruction. (Count)
system.cpu1.commitStats0.committedInstType::SimdAesMix            0                       # Class of committed instruction. (Count)
system.cpu1.commitStats0.committedInstType::SimdSha1Hash            0                       # Class of committed instruction. (Count)
system.cpu1.commitStats0.committedInstType::SimdSha1Hash2            0                       # Class of committed instruction. (Count)
system.cpu1.commitStats0.committedInstType::SimdSha256Hash            0                       # Class of committed instruction. (Count)
system.cpu1.commitStats0.committedInstType::SimdSha256Hash2            0                       # Class of committed instruction. (Count)
system.cpu1.commitStats0.committedInstType::SimdShaSigma2            0                       # Class of committed instruction. (Count)
system.cpu1.commitStats0.committedInstType::SimdShaSigma3            0                       # Class of committed instruction. (Count)
system.cpu1.commitStats0.committedInstType::SimdPredAlu            0                       # Class of committed instruction. (Count)
system.cpu1.commitStats0.committedInstType::Matrix            0                       # Class of committed instruction. (Count)
system.cpu1.commitStats0.committedInstType::MatrixMov            0                       # Class of committed instruction. (Count)
system.cpu1.commitStats0.committedInstType::MatrixOP            0                       # Class of committed instruction. (Count)
system.cpu1.commitStats0.committedInstType::MemRead            0                       # Class of committed instruction. (Count)
system.cpu1.commitStats0.committedInstType::MemWrite            0                       # Class of committed instruction. (Count)
system.cpu1.commitStats0.committedInstType::FloatMemRead            0                       # Class of committed instruction. (Count)
system.cpu1.commitStats0.committedInstType::FloatMemWrite            0                       # Class of committed instruction. (Count)
system.cpu1.commitStats0.committedInstType::IprAccess            0                       # Class of committed instruction. (Count)
system.cpu1.commitStats0.committedInstType::InstPrefetch            0                       # Class of committed instruction. (Count)
system.cpu1.commitStats0.committedInstType::VectorUnitStrideLoad            0                       # Class of committed instruction. (Count)
system.cpu1.commitStats0.committedInstType::VectorUnitStrideStore            0                       # Class of committed instruction. (Count)
system.cpu1.commitStats0.committedInstType::VectorUnitStrideMaskLoad            0                       # Class of committed instruction. (Count)
system.cpu1.commitStats0.committedInstType::VectorUnitStrideMaskStore            0                       # Class of committed instruction. (Count)
system.cpu1.commitStats0.committedInstType::VectorStridedLoad            0                       # Class of committed instruction. (Count)
system.cpu1.commitStats0.committedInstType::VectorStridedStore            0                       # Class of committed instruction. (Count)
system.cpu1.commitStats0.committedInstType::VectorIndexedLoad            0                       # Class of committed instruction. (Count)
system.cpu1.commitStats0.committedInstType::VectorIndexedStore            0                       # Class of committed instruction. (Count)
system.cpu1.commitStats0.committedInstType::VectorUnitStrideFaultOnlyFirstLoad            0                       # Class of committed instruction. (Count)
system.cpu1.commitStats0.committedInstType::VectorWholeRegisterLoad            0                       # Class of committed instruction. (Count)
system.cpu1.commitStats0.committedInstType::VectorWholeRegisterStore            0                       # Class of committed instruction. (Count)
system.cpu1.commitStats0.committedInstType::VectorIntegerArith            0                       # Class of committed instruction. (Count)
system.cpu1.commitStats0.committedInstType::VectorFloatArith            0                       # Class of committed instruction. (Count)
system.cpu1.commitStats0.committedInstType::VectorFloatConvert            0                       # Class of committed instruction. (Count)
system.cpu1.commitStats0.committedInstType::VectorIntegerReduce            0                       # Class of committed instruction. (Count)
system.cpu1.commitStats0.committedInstType::VectorFloatReduce            0                       # Class of committed instruction. (Count)
system.cpu1.commitStats0.committedInstType::VectorMisc            0                       # Class of committed instruction. (Count)
system.cpu1.commitStats0.committedInstType::VectorIntegerExtension            0                       # Class of committed instruction. (Count)
system.cpu1.commitStats0.committedInstType::VectorConfig            0                       # Class of committed instruction. (Count)
system.cpu1.commitStats0.committedInstType::total            0                       # Class of committed instruction. (Count)
system.cpu1.dcache.blockedCycles::no_mshrs            0                       # number of cycles access was blocked (Cycle)
system.cpu1.dcache.blockedCycles::no_targets            0                       # number of cycles access was blocked (Cycle)
system.cpu1.dcache.blockedCauses::no_mshrs            0                       # number of times access was blocked (Count)
system.cpu1.dcache.blockedCauses::no_targets            0                       # number of times access was blocked (Count)
system.cpu1.dcache.avgBlocked::no_mshrs           nan                       # average number of cycles each access was blocked ((Cycle/Count))
system.cpu1.dcache.avgBlocked::no_targets          nan                       # average number of cycles each access was blocked ((Cycle/Count))
system.cpu1.dcache.replacements                     0                       # number of replacements (Count)
system.cpu1.dcache.power_state.pwrStateResidencyTicks::UNDEFINED 389464257250                       # Cumulative time (in ticks) in various power states (Tick)
system.cpu1.dcache.tags.tagsInUse                   0                       # Average ticks per tags in use ((Tick/Count))
system.cpu1.dcache.tags.totalRefs                   0                       # Total number of references to valid blocks. (Count)
system.cpu1.dcache.tags.sampledRefs                 0                       # Sample count of references to valid blocks. (Count)
system.cpu1.dcache.tags.avgRefs                   nan                       # Average number of references to valid blocks. ((Count/Count))
system.cpu1.dcache.tags.warmupTick                  0                       # The tick when the warmup percentage was hit. (Tick)
system.cpu1.dcache.tags.tagAccesses                 0                       # Number of tag accesses (Count)
system.cpu1.dcache.tags.dataAccesses                0                       # Number of data accesses (Count)
system.cpu1.dcache.tags.power_state.pwrStateResidencyTicks::UNDEFINED 389464257250                       # Cumulative time (in ticks) in various power states (Tick)
system.cpu1.dtb_walker_cache.blockedCycles::no_mshrs            0                       # number of cycles access was blocked (Cycle)
system.cpu1.dtb_walker_cache.blockedCycles::no_targets            0                       # number of cycles access was blocked (Cycle)
system.cpu1.dtb_walker_cache.blockedCauses::no_mshrs            0                       # number of times access was blocked (Count)
system.cpu1.dtb_walker_cache.blockedCauses::no_targets            0                       # number of times access was blocked (Count)
system.cpu1.dtb_walker_cache.avgBlocked::no_mshrs          nan                       # average number of cycles each access was blocked ((Cycle/Count))
system.cpu1.dtb_walker_cache.avgBlocked::no_targets          nan                       # average number of cycles each access was blocked ((Cycle/Count))
system.cpu1.dtb_walker_cache.replacements            0                       # number of replacements (Count)
system.cpu1.dtb_walker_cache.power_state.pwrStateResidencyTicks::UNDEFINED 389464257250                       # Cumulative time (in ticks) in various power states (Tick)
system.cpu1.dtb_walker_cache.tags.tagsInUse            0                       # Average ticks per tags in use ((Tick/Count))
system.cpu1.dtb_walker_cache.tags.totalRefs            0                       # Total number of references to valid blocks. (Count)
system.cpu1.dtb_walker_cache.tags.sampledRefs            0                       # Sample count of references to valid blocks. (Count)
system.cpu1.dtb_walker_cache.tags.avgRefs          nan                       # Average number of references to valid blocks. ((Count/Count))
system.cpu1.dtb_walker_cache.tags.warmupTick            0                       # The tick when the warmup percentage was hit. (Tick)
system.cpu1.dtb_walker_cache.tags.tagAccesses            0                       # Number of tag accesses (Count)
system.cpu1.dtb_walker_cache.tags.dataAccesses            0                       # Number of data accesses (Count)
system.cpu1.dtb_walker_cache.tags.power_state.pwrStateResidencyTicks::UNDEFINED 389464257250                       # Cumulative time (in ticks) in various power states (Tick)
system.cpu1.exec_context.thread_0.numMatAluAccesses            0                       # Number of matrix alu accesses (Count)
system.cpu1.exec_context.thread_0.numCallsReturns            0                       # Number of times a function call or return occured (Count)
system.cpu1.exec_context.thread_0.numMatInsts            0                       # Number of matrix instructions (Count)
system.cpu1.exec_context.thread_0.numIdleCycles            0                       # Number of idle cycles (Cycle)
system.cpu1.exec_context.thread_0.numBusyCycles            0                       # Number of busy cycles (Cycle)
system.cpu1.exec_context.thread_0.notIdleFraction            0                       # Percentage of non-idle cycles (Ratio)
system.cpu1.exec_context.thread_0.idleFraction            1                       # Percentage of idle cycles (Ratio)
system.cpu1.executeStats0.numInsts                  0                       # Number of executed instructions (Count)
system.cpu1.executeStats0.numNop                    0                       # Number of nop insts executed (Count)
system.cpu1.executeStats0.numBranches               0                       # Number of branches executed (Count)
system.cpu1.executeStats0.numLoadInsts              0                       # Number of load instructions executed (Count)
system.cpu1.executeStats0.numStoreInsts             0                       # Number of stores executed (Count)
system.cpu1.executeStats0.instRate                nan                       # Inst execution rate ((Count/Cycle))
system.cpu1.executeStats0.numFpRegWrites            0                       # Number of times the floating registers were written (Count)
system.cpu1.executeStats0.numMemRefs                0                       # Number of memory refs (Count)
system.cpu1.executeStats0.numVecAluAccesses            0                       # Number of vector alu accesses (Count)
system.cpu1.executeStats0.numDiscardedOps            0                       # Number of ops (including micro ops) which were discarded before commit (Count)
system.cpu1.fetchStats0.numInsts                    0                       # Number of instructions fetched (thread level) (Count)
system.cpu1.fetchStats0.numOps                      0                       # Number of ops (including micro ops) fetched (thread level) (Count)
system.cpu1.fetchStats0.fetchRate                 nan                       # Number of inst fetches per cycle ((Count/Cycle))
system.cpu1.fetchStats0.branchRate                nan                       # Number of branch fetches per cycle (Ratio)
system.cpu1.fetchStats0.numFetchSuspends            0                       # Number of times Execute suspended instruction fetching (Count)
system.cpu1.icache.blockedCycles::no_mshrs            0                       # number of cycles access was blocked (Cycle)
system.cpu1.icache.blockedCycles::no_targets            0                       # number of cycles access was blocked (Cycle)
system.cpu1.icache.blockedCauses::no_mshrs            0                       # number of times access was blocked (Count)
system.cpu1.icache.blockedCauses::no_targets            0                       # number of times access was blocked (Count)
system.cpu1.icache.avgBlocked::no_mshrs           nan                       # average number of cycles each access was blocked ((Cycle/Count))
system.cpu1.icache.avgBlocked::no_targets          nan                       # average number of cycles each access was blocked ((Cycle/Count))
system.cpu1.icache.replacements                     0                       # number of replacements (Count)
system.cpu1.icache.power_state.pwrStateResidencyTicks::UNDEFINED 389464257250                       # Cumulative time (in ticks) in various power states (Tick)
system.cpu1.icache.tags.tagsInUse                   0                       # Average ticks per tags in use ((Tick/Count))
system.cpu1.icache.tags.totalRefs                   0                       # Total number of references to valid blocks. (Count)
system.cpu1.icache.tags.sampledRefs                 0                       # Sample count of references to valid blocks. (Count)
system.cpu1.icache.tags.avgRefs                   nan                       # Average number of references to valid blocks. ((Count/Count))
system.cpu1.icache.tags.warmupTick                  0                       # The tick when the warmup percentage was hit. (Tick)
system.cpu1.icache.tags.tagAccesses                 0                       # Number of tag accesses (Count)
system.cpu1.icache.tags.dataAccesses                0                       # Number of data accesses (Count)
system.cpu1.icache.tags.power_state.pwrStateResidencyTicks::UNDEFINED 389464257250                       # Cumulative time (in ticks) in various power states (Tick)
system.cpu1.interrupts.clk_domain.clock          4000                       # Clock period in ticks (Tick)
system.cpu1.itb_walker_cache.blockedCycles::no_mshrs            0                       # number of cycles access was blocked (Cycle)
system.cpu1.itb_walker_cache.blockedCycles::no_targets            0                       # number of cycles access was blocked (Cycle)
system.cpu1.itb_walker_cache.blockedCauses::no_mshrs            0                       # number of times access was blocked (Count)
system.cpu1.itb_walker_cache.blockedCauses::no_targets            0                       # number of times access was blocked (Count)
system.cpu1.itb_walker_cache.avgBlocked::no_mshrs          nan                       # average number of cycles each access was blocked ((Cycle/Count))
system.cpu1.itb_walker_cache.avgBlocked::no_targets          nan                       # average number of cycles each access was blocked ((Cycle/Count))
system.cpu1.itb_walker_cache.replacements            0                       # number of replacements (Count)
system.cpu1.itb_walker_cache.power_state.pwrStateResidencyTicks::UNDEFINED 389464257250                       # Cumulative time (in ticks) in various power states (Tick)
system.cpu1.itb_walker_cache.tags.tagsInUse            0                       # Average ticks per tags in use ((Tick/Count))
system.cpu1.itb_walker_cache.tags.totalRefs            0                       # Total number of references to valid blocks. (Count)
system.cpu1.itb_walker_cache.tags.sampledRefs            0                       # Sample count of references to valid blocks. (Count)
system.cpu1.itb_walker_cache.tags.avgRefs          nan                       # Average number of references to valid blocks. ((Count/Count))
system.cpu1.itb_walker_cache.tags.warmupTick            0                       # The tick when the warmup percentage was hit. (Tick)
system.cpu1.itb_walker_cache.tags.tagAccesses            0                       # Number of tag accesses (Count)
system.cpu1.itb_walker_cache.tags.dataAccesses            0                       # Number of data accesses (Count)
system.cpu1.itb_walker_cache.tags.power_state.pwrStateResidencyTicks::UNDEFINED 389464257250                       # Cumulative time (in ticks) in various power states (Tick)
system.cpu1.mmu.dtb.rdAccesses                      0                       # TLB accesses on read requests (Count)
system.cpu1.mmu.dtb.wrAccesses                      0                       # TLB accesses on write requests (Count)
system.cpu1.mmu.dtb.rdMisses                        0                       # TLB misses on read requests (Count)
system.cpu1.mmu.dtb.wrMisses                        0                       # TLB misses on write requests (Count)
system.cpu1.mmu.dtb.walker.power_state.pwrStateResidencyTicks::UNDEFINED 389464257250                       # Cumulative time (in ticks) in various power states (Tick)
system.cpu1.mmu.itb.rdAccesses                      0                       # TLB accesses on read requests (Count)
system.cpu1.mmu.itb.wrAccesses                      0                       # TLB accesses on write requests (Count)
system.cpu1.mmu.itb.rdMisses                        0                       # TLB misses on read requests (Count)
system.cpu1.mmu.itb.wrMisses                        0                       # TLB misses on write requests (Count)
system.cpu1.mmu.itb.walker.power_state.pwrStateResidencyTicks::UNDEFINED 389464257250                       # Cumulative time (in ticks) in various power states (Tick)
system.cpu1.power_state.pwrStateResidencyTicks::ON 389464257250                       # Cumulative time (in ticks) in various power states (Tick)
system.cpu1.thread_0.numInsts                       0                       # Number of Instructions committed (Count)
system.cpu1.thread_0.numOps                         0                       # Number of Ops committed (Count)
system.cpu1.thread_0.numMemRefs                     0                       # Number of Memory References (Count)
system.cpu2.numCycles                               0                       # Number of cpu cycles simulated (Cycle)
system.cpu2.cpi                                   nan                       # CPI: cycles per instruction (core level) ((Cycle/Count))
system.cpu2.ipc                                   nan                       # IPC: instructions per cycle (core level) ((Count/Cycle))
system.cpu2.numWorkItemsStarted                     0                       # Number of work items this cpu started (Count)
system.cpu2.numWorkItemsCompleted                   0                       # Number of work items this cpu completed (Count)
system.cpu2.commitStats0.numOps                     0                       # Number of ops (including micro ops) committed (thread level) (Count)
system.cpu2.commitStats0.numInstsNotNOP             0                       # Number of instructions committed excluding NOPs or prefetches (Count)
system.cpu2.commitStats0.numOpsNotNOP               0                       # Number of Ops (including micro ops) Simulated (Count)
system.cpu2.commitStats0.cpi                      nan                       # CPI: cycles per instruction (thread level) ((Cycle/Count))
system.cpu2.commitStats0.ipc                      nan                       # IPC: instructions per cycle (thread level) ((Count/Cycle))
system.cpu2.commitStats0.numMemRefs                 0                       # Number of memory references committed (Count)
system.cpu2.commitStats0.numFpInsts                 0                       # Number of float instructions (Count)
system.cpu2.commitStats0.numIntInsts                0                       # Number of integer instructions (Count)
system.cpu2.commitStats0.numLoadInsts               0                       # Number of load instructions (Count)
[...]
system.l2.ReadSharedReq.mshrMissRate::total     0.974036                       # mshr miss rate for ReadSharedReq accesses (Ratio)
system.l2.ReadSharedReq.avgMshrMissLatency::cpu0.data 2884930.629296                       # average ReadSharedReq mshr miss latency ((Tick/Count))
system.l2.ReadSharedReq.avgMshrMissLatency::total 2884930.629296                       # average ReadSharedReq mshr miss latency ((Tick/Count))
system.l2.WritebackClean.hits::writebacks        11467                       # number of WritebackClean hits (Count)
system.l2.WritebackClean.hits::total            11467                       # number of WritebackClean hits (Count)
system.l2.WritebackClean.accesses::writebacks        11467                       # number of WritebackClean accesses(hits+misses) (Count)
system.l2.WritebackClean.accesses::total        11467                       # number of WritebackClean accesses(hits+misses) (Count)
system.l2.WritebackDirty.hits::writebacks       174448                       # number of WritebackDirty hits (Count)
system.l2.WritebackDirty.hits::total           174448                       # number of WritebackDirty hits (Count)
system.l2.WritebackDirty.accesses::writebacks       174448                       # number of WritebackDirty accesses(hits+misses) (Count)
system.l2.WritebackDirty.accesses::total       174448                       # number of WritebackDirty accesses(hits+misses) (Count)
system.l2.power_state.pwrStateResidencyTicks::UNDEFINED 389464257250                       # Cumulative time (in ticks) in various power states (Tick)
system.l2.tags.tagsInUse                  4087.185497                       # Average ticks per tags in use ((Tick/Count))
system.l2.tags.totalRefs                       467664                       # Total number of references to valid blocks. (Count)
system.l2.tags.sampledRefs                     222407                       # Sample count of references to valid blocks. (Count)
system.l2.tags.avgRefs                       2.102740                       # Average number of references to valid blocks. ((Count/Count))
system.l2.tags.warmupTick                      626000                       # The tick when the warmup percentage was hit. (Tick)
system.l2.tags.occupancies::writebacks      15.437532                       # Average occupied blocks per tick, per requestor ((Count/Tick))
system.l2.tags.occupancies::cpu0.inst       17.445072                       # Average occupied blocks per tick, per requestor ((Count/Tick))
system.l2.tags.occupancies::cpu0.data     4054.302892                       # Average occupied blocks per tick, per requestor ((Count/Tick))
system.l2.tags.avgOccs::writebacks           0.003769                       # Average percentage of cache occupancy ((Ratio/Tick))
system.l2.tags.avgOccs::cpu0.inst            0.004259                       # Average percentage of cache occupancy ((Ratio/Tick))
system.l2.tags.avgOccs::cpu0.data            0.989820                       # Average percentage of cache occupancy ((Ratio/Tick))
system.l2.tags.avgOccs::total                0.997848                       # Average percentage of cache occupancy ((Ratio/Tick))
system.l2.tags.occupanciesTaskId::1024           4096                       # Occupied blocks per task id (Count)
system.l2.tags.ageTaskId_1024::0                   35                       # Occupied blocks per task id, per block age (Count)
system.l2.tags.ageTaskId_1024::1                   10                       # Occupied blocks per task id, per block age (Count)
system.l2.tags.ageTaskId_1024::2                  612                       # Occupied blocks per task id, per block age (Count)
system.l2.tags.ageTaskId_1024::3                 3193                       # Occupied blocks per task id, per block age (Count)
system.l2.tags.ageTaskId_1024::4                  246                       # Occupied blocks per task id, per block age (Count)
system.l2.tags.ratioOccsTaskId::1024                1                       # Ratio of occupied blocks and all blocks, per task id (Ratio)
system.l2.tags.tagAccesses                    3964871                       # Number of tag accesses (Count)
system.l2.tags.dataAccesses                   3964871                       # Number of data accesses (Count)
system.l2.tags.power_state.pwrStateResidencyTicks::UNDEFINED 389464257250                       # Cumulative time (in ticks) in various power states (Tick)
system.mem_ctrls.bytesRead::cpu0.inst           91328                       # Number of bytes read from this memory (Byte)
system.mem_ctrls.bytesRead::cpu0.data        14103104                       # Number of bytes read from this memory (Byte)
system.mem_ctrls.bytesRead::total            14194432                       # Number of bytes read from this memory (Byte)
system.mem_ctrls.bytesInstRead::cpu0.inst        91328                       # Number of instructions bytes read from this memory (Byte)
system.mem_ctrls.bytesInstRead::total           91328                       # Number of instructions bytes read from this memory (Byte)
system.mem_ctrls.bytesWritten::writebacks     10887616                       # Number of bytes written to this memory (Byte)
system.mem_ctrls.bytesWritten::total         10887616                       # Number of bytes written to this memory (Byte)
system.mem_ctrls.numReads::cpu0.inst             1427                       # Number of read requests responded to by this memory (Count)
system.mem_ctrls.numReads::cpu0.data           220361                       # Number of read requests responded to by this memory (Count)
system.mem_ctrls.numReads::total               221788                       # Number of read requests responded to by this memory (Count)
system.mem_ctrls.numWrites::writebacks         170119                       # Number of write requests responded to by this memory (Count)
system.mem_ctrls.numWrites::total              170119                       # Number of write requests responded to by this memory (Count)
system.mem_ctrls.bwRead::cpu0.inst             234496                       # Total read bandwidth from this memory ((Byte/Second))
system.mem_ctrls.bwRead::cpu0.data           36211549                       # Total read bandwidth from this memory ((Byte/Second))
system.mem_ctrls.bwRead::total               36446045                       # Total read bandwidth from this memory ((Byte/Second))
system.mem_ctrls.bwInstRead::cpu0.inst         234496                       # Instruction read bandwidth from this memory ((Byte/Second))
system.mem_ctrls.bwInstRead::total             234496                       # Instruction read bandwidth from this memory ((Byte/Second))
system.mem_ctrls.bwWrite::writebacks         27955366                       # Write bandwidth from this memory ((Byte/Second))
system.mem_ctrls.bwWrite::total              27955366                       # Write bandwidth from this memory ((Byte/Second))
system.mem_ctrls.bwTotal::writebacks         27955366                       # Total bandwidth to/from this memory ((Byte/Second))
system.mem_ctrls.bwTotal::cpu0.inst            234496                       # Total bandwidth to/from this memory ((Byte/Second))
system.mem_ctrls.bwTotal::cpu0.data          36211549                       # Total bandwidth to/from this memory ((Byte/Second))
system.mem_ctrls.bwTotal::total              64401412                       # Total bandwidth to/from this memory ((Byte/Second))
system.mem_ctrls.hits                          221159                       # Number of hits (Count)
system.mem_ctrls.misses                           629                       # Number of misses (Count)
system.mem_ctrls.total_num                     221788                       # Number of total_num (Count)
system.mem_ctrls.total_num_read                221794                       # Number of total_num_read (Count)
system.mem_ctrls.total_num_swap1                 1733                       # Number of total_num_swap1 (Count)
system.mem_ctrls.total_num_swap2                    0                       # Number of total_num_swap2 (Count)
system.mem_ctrls.hitRatio                    0.997164                       # The ratio of hits to the total accesses to mycache (Ratio)
system.mem_ctrls.power_state.pwrStateResidencyTicks::UNDEFINED 389464257250                       # Cumulative time (in ticks) in various power states (Tick)
system.membus.transDist::ReadResp               74318                       # Transaction distribution (Count)
system.membus.transDist::WritebackDirty        170119                       # Transaction distribution (Count)
system.membus.transDist::CleanEvict             47455                       # Transaction distribution (Count)
system.membus.transDist::ReadExReq             147470                       # Transaction distribution (Count)
system.membus.transDist::ReadExResp            147470                       # Transaction distribution (Count)
system.membus.transDist::ReadSharedReq          74318                       # Transaction distribution (Count)
system.membus.pktCount_system.l2.mem_side_port::system.mem_ctrls.port       661150                       # Packet count per connected requestor and responder (Count)
system.membus.pktCount_system.l2.mem_side_port::total       661150                       # Packet count per connected requestor and responder (Count)
system.membus.pktCount::total                  661150                       # Packet count per connected requestor and responder (Count)
system.membus.pktSize_system.l2.mem_side_port::system.mem_ctrls.port     25082048                       # Cumulative packet size per connected requestor and responder (Byte)
system.membus.pktSize_system.l2.mem_side_port::total     25082048                       # Cumulative packet size per connected requestor and responder (Byte)
system.membus.pktSize::total                 25082048                       # Cumulative packet size per connected requestor and responder (Byte)
system.membus.snoops                                0                       # Total snoops (Count)
system.membus.snoopTraffic                          0                       # Total snoop traffic (Byte)
system.membus.snoopFanout::samples             221794                       # Request fanout histogram (Count)
system.membus.snoopFanout::mean                     0                       # Request fanout histogram (Count)
system.membus.snoopFanout::stdev                    0                       # Request fanout histogram (Count)
system.membus.snoopFanout::underflows               0      0.00%      0.00% # Request fanout histogram (Count)
system.membus.snoopFanout::0                   221794    100.00%    100.00% # Request fanout histogram (Count)
system.membus.snoopFanout::1                        0      0.00%    100.00% # Request fanout histogram (Count)
system.membus.snoopFanout::overflows                0      0.00%    100.00% # Request fanout histogram (Count)
system.membus.snoopFanout::min_value                0                       # Request fanout histogram (Count)
system.membus.snoopFanout::max_value                0                       # Request fanout histogram (Count)
system.membus.snoopFanout::total               221794                       # Request fanout histogram (Count)
system.membus.power_state.pwrStateResidencyTicks::UNDEFINED 389464257250                       # Cumulative time (in ticks) in various power states (Tick)
system.membus.reqLayer8.occupancy          1199676510                       # Layer occupancy (ticks) (Tick)
system.membus.reqLayer8.utilization               0.0                       # Layer utilization (Ratio)
system.membus.respLayer1.occupancy         1108940000                       # Layer occupancy (ticks) (Tick)
system.membus.respLayer1.utilization              0.0                       # Layer utilization (Ratio)
system.membus.snoop_filter.totRequests         439593                       # Total number of requests made to the snoop filter. (Count)
system.membus.snoop_filter.hitSingleRequests       217799                       # Number of requests hitting in the snoop filter with a single holder of the requested data. (Count)
system.membus.snoop_filter.hitMultiRequests            0                       # Number of requests hitting in the snoop filter with multiple (>1) holders of the requested data. (Count)
system.membus.snoop_filter.totSnoops                0                       # Total number of snoops made to the snoop filter. (Count)
system.membus.snoop_filter.hitSingleSnoops            0                       # Number of snoops hitting in the snoop filter with a single holder of the requested data. (Count)
system.membus.snoop_filter.hitMultiSnoops            0                       # Number of snoops hitting in the snoop filter with multiple (>1) holders of the requested data. (Count)
system.tol2bus.transDist::ReadResp              86557                       # Transaction distribution (Count)
system.tol2bus.transDist::WritebackDirty       344567                       # Transaction distribution (Count)
system.tol2bus.transDist::WritebackClean        11467                       # Transaction distribution (Count)
system.tol2bus.transDist::CleanEvict            95542                       # Transaction distribution (Count)
system.tol2bus.transDist::ReadExReq            147988                       # Transaction distribution (Count)
system.tol2bus.transDist::ReadExResp           147988                       # Transaction distribution (Count)
system.tol2bus.transDist::ReadCleanReq          11723                       # Transaction distribution (Count)
system.tol2bus.transDist::ReadSharedReq         74834                       # Transaction distribution (Count)
system.tol2bus.pktCount_system.cpu0.icache.mem_side_port::system.l2.cpu_side_port        34913                       # Packet count per connected requestor and responder (Count)
system.tol2bus.pktCount_system.cpu0.dcache.mem_side_port::system.l2.cpu_side_port       667442                       # Packet count per connected requestor and responder (Count)
system.tol2bus.pktCount::total                 702355                       # Packet count per connected requestor and responder (Count)
system.tol2bus.pktSize_system.cpu0.icache.mem_side_port::system.l2.cpu_side_port      1484160                       # Cumulative packet size per connected requestor and responder (Byte)
system.tol2bus.pktSize_system.cpu0.dcache.mem_side_port::system.l2.cpu_side_port     25425280                       # Cumulative packet size per connected requestor and responder (Byte)
system.tol2bus.pktSize::total                26909440                       # Cumulative packet size per connected requestor and responder (Byte)
system.tol2bus.snoops                          218311                       # Total snoops (Count)
system.tol2bus.snoopTraffic                  10887616                       # Total snoop traffic (Byte)
system.tol2bus.snoopFanout::samples            452856                       # Request fanout histogram (Count)
system.tol2bus.snoopFanout::mean             0.001950                       # Request fanout histogram (Count)
system.tol2bus.snoopFanout::stdev            0.044114                       # Request fanout histogram (Count)
system.tol2bus.snoopFanout::underflows              0      0.00%      0.00% # Request fanout histogram (Count)
system.tol2bus.snoopFanout::0                  451973     99.81%     99.81% # Request fanout histogram (Count)
system.tol2bus.snoopFanout::1                     883      0.19%    100.00% # Request fanout histogram (Count)
system.tol2bus.snoopFanout::2                       0      0.00%    100.00% # Request fanout histogram (Count)
system.tol2bus.snoopFanout::3                       0      0.00%    100.00% # Request fanout histogram (Count)
system.tol2bus.snoopFanout::4                       0      0.00%    100.00% # Request fanout histogram (Count)
system.tol2bus.snoopFanout::5                       0      0.00%    100.00% # Request fanout histogram (Count)
system.tol2bus.snoopFanout::6                       0      0.00%    100.00% # Request fanout histogram (Count)
system.tol2bus.snoopFanout::7                       0      0.00%    100.00% # Request fanout histogram (Count)
system.tol2bus.snoopFanout::8                       0      0.00%    100.00% # Request fanout histogram (Count)
system.tol2bus.snoopFanout::9                       0      0.00%    100.00% # Request fanout histogram (Count)
system.tol2bus.snoopFanout::10                      0      0.00%    100.00% # Request fanout histogram (Count)
system.tol2bus.snoopFanout::11                      0      0.00%    100.00% # Request fanout histogram (Count)
system.tol2bus.snoopFanout::12                      0      0.00%    100.00% # Request fanout histogram (Count)
system.tol2bus.snoopFanout::13                      0      0.00%    100.00% # Request fanout histogram (Count)
system.tol2bus.snoopFanout::14                      0      0.00%    100.00% # Request fanout histogram (Count)
system.tol2bus.snoopFanout::15                      0      0.00%    100.00% # Request fanout histogram (Count)
system.tol2bus.snoopFanout::16                      0      0.00%    100.00% # Request fanout histogram (Count)
system.tol2bus.snoopFanout::overflows               0      0.00%    100.00% # Request fanout histogram (Count)
system.tol2bus.snoopFanout::min_value               0                       # Request fanout histogram (Count)
system.tol2bus.snoopFanout::max_value               1                       # Request fanout histogram (Count)
system.tol2bus.snoopFanout::total              452856                       # Request fanout histogram (Count)
system.tol2bus.power_state.pwrStateResidencyTicks::UNDEFINED 389464257250                       # Cumulative time (in ticks) in various power states (Tick)
system.tol2bus.reqLayer0.occupancy          209910000                       # Layer occupancy (ticks) (Tick)
system.tol2bus.reqLayer0.utilization              0.0                       # Layer utilization (Ratio)
system.tol2bus.respLayer0.occupancy           8792250                       # Layer occupancy (ticks) (Tick)
system.tol2bus.respLayer0.utilization             0.0                       # Layer utilization (Ratio)
system.tol2bus.respLayer1.occupancy         167116500                       # Layer occupancy (ticks) (Tick)
system.tol2bus.respLayer1.utilization             0.0                       # Layer utilization (Ratio)
system.tol2bus.snoop_filter.totRequests        467810                       # Total number of requests made to the snoop filter. (Count)
system.tol2bus.snoop_filter.hitSingleRequests       233265                       # Number of requests hitting in the snoop filter with a single holder of the requested data. (Count)
system.tol2bus.snoop_filter.hitMultiRequests            2                       # Number of requests hitting in the snoop filter with multiple (>1) holders of the requested data. (Count)
system.tol2bus.snoop_filter.totSnoops             881                       # Total number of snoops made to the snoop filter. (Count)
system.tol2bus.snoop_filter.hitSingleSnoops          881                       # Number of snoops hitting in the snoop filter with a single holder of the requested data. (Count)
system.tol2bus.snoop_filter.hitMultiSnoops            0                       # Number of snoops hitting in the snoop filter with multiple (>1) holders of the requested data. (Count)
system.voltage_domain.voltage                       1                       # Voltage in Volts (Volt)
system.workload.inst.arm                            0                       # number of arm instructions executed (Count)
system.workload.inst.quiesce                        0                       # number of quiesce instructions executed (Count)

---------- End Simulation Statistics   ----------
