
---------- Begin Simulation Statistics ----------
simSeconds                                   0.000005                       # Number of seconds simulated (Second)
simTicks                                      4973688                       # Number of ticks simulated (Tick)
finalTick                                     4973688                       # Number of ticks from beginning of simulation (restored from checkpoints and never reset) (Tick)
simFreq                                  1000000000000                       # The number of ticks per simulated second ((Tick/Second))
hostSeconds                                      0.03                       # Real time elapsed on the host (Second)
hostTickRate                                180880792                       # The number of ticks simulated per host second (ticks/s) ((Tick/Second))
hostMemory                                     199656                       # Number of bytes of host memory used (Byte)
simInsts                                         6539                       # Number of instructions simulated (Count)
simOps                                          12930                       # Number of ops (including micro ops) simulated (Count)
hostInstRate                                   236905                       # Simulator instruction rate (inst/s) ((Count/Second))
hostOpRate                                     468333                       # Simulator op (including micro ops) rate (op/s) ((Count/Second))
system.cache_hierarchy.dptw_caches.blockedCycles::no_mshrs            0                       # number of cycles access was blocked (Cycle)
system.cache_hierarchy.dptw_caches.blockedCycles::no_targets            0                       # number of cycles access was blocked (Cycle)
system.cache_hierarchy.dptw_caches.blockedCauses::no_mshrs            0                       # number of times access was blocked (Count)
system.cache_hierarchy.dptw_caches.blockedCauses::no_targets            0                       # number of times access was blocked (Count)
system.cache_hierarchy.dptw_caches.avgBlocked::no_mshrs          nan                       # average number of cycles each access was blocked ((Cycle/Count))
system.cache_hierarchy.dptw_caches.avgBlocked::no_targets          nan                       # average number of cycles each access was blocked ((Cycle/Count))
system.cache_hierarchy.dptw_caches.replacements            0                       # number of replacements (Count)
system.cache_hierarchy.dptw_caches.power_state.pwrStateResidencyTicks::UNDEFINED      4973688                       # Cumulative time (in ticks) in various power states (Tick)
system.cache_hierarchy.dptw_caches.tags.tagsInUse            0                       # Average ticks per tags in use ((Tick/Count))
system.cache_hierarchy.dptw_caches.tags.totalRefs            0                       # Total number of references to valid blocks. (Count)
system.cache_hierarchy.dptw_caches.tags.sampledRefs            0                       # Sample count of references to valid blocks. (Count)
system.cache_hierarchy.dptw_caches.tags.avgRefs          nan                       # Average number of references to valid blocks. ((Count/Count))
system.cache_hierarchy.dptw_caches.tags.warmupTick            0                       # The tick when the warmup percentage was hit. (Tick)
system.cache_hierarchy.dptw_caches.tags.tagAccesses            0                       # Number of tag accesses (Count)
system.cache_hierarchy.dptw_caches.tags.dataAccesses            0                       # Number of data accesses (Count)
system.cache_hierarchy.dptw_caches.tags.power_state.pwrStateResidencyTicks::UNDEFINED      4973688                       # Cumulative time (in ticks) in various power states (Tick)
system.cache_hierarchy.iptw_caches.blockedCycles::no_mshrs            0                       # number of cycles access was blocked (Cycle)
system.cache_hierarchy.iptw_caches.blockedCycles::no_targets            0                       # number of cycles access was blocked (Cycle)
system.cache_hierarchy.iptw_caches.blockedCauses::no_mshrs            0                       # number of times access was blocked (Count)
system.cache_hierarchy.iptw_caches.blockedCauses::no_targets            0                       # number of times access was blocked (Count)
system.cache_hierarchy.iptw_caches.avgBlocked::no_mshrs          nan                       # average number of cycles each access was blocked ((Cycle/Count))
system.cache_hierarchy.iptw_caches.avgBlocked::no_targets          nan                       # average number of cycles each access was blocked ((Cycle/Count))
system.cache_hierarchy.iptw_caches.replacements            0                       # number of replacements (Count)
system.cache_hierarchy.iptw_caches.power_state.pwrStateResidencyTicks::UNDEFINED      4973688                       # Cumulative time (in ticks) in various power states (Tick)
system.cache_hierarchy.iptw_caches.tags.tagsInUse            0                       # Average ticks per tags in use ((Tick/Count))
system.cache_hierarchy.iptw_caches.tags.totalRefs            0                       # Total number of references to valid blocks. (Count)
system.cache_hierarchy.iptw_caches.tags.sampledRefs            0                       # Sample count of references to valid blocks. (Count)
system.cache_hierarchy.iptw_caches.tags.avgRefs          nan                       # Average number of references to valid blocks. ((Count/Count))
system.cache_hierarchy.iptw_caches.tags.warmupTick            0                       # The tick when the warmup percentage was hit. (Tick)
system.cache_hierarchy.iptw_caches.tags.tagAccesses            0                       # Number of tag accesses (Count)
system.cache_hierarchy.iptw_caches.tags.dataAccesses            0                       # Number of data accesses (Count)
system.cache_hierarchy.iptw_caches.tags.power_state.pwrStateResidencyTicks::UNDEFINED      4973688                       # Cumulative time (in ticks) in various power states (Tick)
system.cache_hierarchy.l1dcaches.demandHits::processor.cores.core.data         2438                       # number of demand (read+write) hits (Count)
system.cache_hierarchy.l1dcaches.demandHits::total         2438                       # number of demand (read+write) hits (Count)
system.cache_hierarchy.l1dcaches.overallHits::processor.cores.core.data         2438                       # number of overall hits (Count)
system.cache_hierarchy.l1dcaches.overallHits::total         2438                       # number of overall hits (Count)
system.cache_hierarchy.l1dcaches.demandMisses::processor.cores.core.data          184                       # number of demand (read+write) misses (Count)
system.cache_hierarchy.l1dcaches.demandMisses::total          184                       # number of demand (read+write) misses (Count)
system.cache_hierarchy.l1dcaches.overallMisses::processor.cores.core.data          184                       # number of overall misses (Count)
system.cache_hierarchy.l1dcaches.overallMisses::total          184                       # number of overall misses (Count)
system.cache_hierarchy.l1dcaches.demandAccesses::processor.cores.core.data         2622                       # number of demand (read+write) accesses (Count)
system.cache_hierarchy.l1dcaches.demandAccesses::total         2622                       # number of demand (read+write) accesses (Count)
system.cache_hierarchy.l1dcaches.overallAccesses::processor.cores.core.data         2622                       # number of overall (read+write) accesses (Count)
system.cache_hierarchy.l1dcaches.overallAccesses::total         2622                       # number of overall (read+write) accesses (Count)
system.cache_hierarchy.l1dcaches.demandMissRate::processor.cores.core.data     0.070175                       # miss rate for demand accesses (Ratio)
system.cache_hierarchy.l1dcaches.demandMissRate::total     0.070175                       # miss rate for demand accesses (Ratio)
system.cache_hierarchy.l1dcaches.overallMissRate::processor.cores.core.data     0.070175                       # miss rate for overall accesses (Ratio)
system.cache_hierarchy.l1dcaches.overallMissRate::total     0.070175                       # miss rate for overall accesses (Ratio)
system.cache_hierarchy.l1dcaches.blockedCycles::no_mshrs            0                       # number of cycles access was blocked (Cycle)
system.cache_hierarchy.l1dcaches.blockedCycles::no_targets            0                       # number of cycles access was blocked (Cycle)
system.cache_hierarchy.l1dcaches.blockedCauses::no_mshrs            0                       # number of times access was blocked (Count)
system.cache_hierarchy.l1dcaches.blockedCauses::no_targets            0                       # number of times access was blocked (Count)
system.cache_hierarchy.l1dcaches.avgBlocked::no_mshrs          nan                       # average number of cycles each access was blocked ((Cycle/Count))
system.cache_hierarchy.l1dcaches.avgBlocked::no_targets          nan                       # average number of cycles each access was blocked ((Cycle/Count))
system.cache_hierarchy.l1dcaches.replacements            0                       # number of replacements (Count)
system.cache_hierarchy.l1dcaches.ReadReq.hits::processor.cores.core.data         1189                       # number of ReadReq hits (Count)
system.cache_hierarchy.l1dcaches.ReadReq.hits::total         1189                       # number of ReadReq hits (Count)
system.cache_hierarchy.l1dcaches.ReadReq.misses::processor.cores.core.data           83                       # number of ReadReq misses (Count)
system.cache_hierarchy.l1dcaches.ReadReq.misses::total           83                       # number of ReadReq misses (Count)
system.cache_hierarchy.l1dcaches.ReadReq.accesses::processor.cores.core.data         1272                       # number of ReadReq accesses(hits+misses) (Count)
system.cache_hierarchy.l1dcaches.ReadReq.accesses::total         1272                       # number of ReadReq accesses(hits+misses) (Count)
system.cache_hierarchy.l1dcaches.ReadReq.missRate::processor.cores.core.data     0.065252                       # miss rate for ReadReq accesses (Ratio)
system.cache_hierarchy.l1dcaches.ReadReq.missRate::total     0.065252                       # miss rate for ReadReq accesses (Ratio)
system.cache_hierarchy.l1dcaches.WriteReq.hits::processor.cores.core.data         1249                       # number of WriteReq hits (Count)
system.cache_hierarchy.l1dcaches.WriteReq.hits::total         1249                       # number of WriteReq hits (Count)
system.cache_hierarchy.l1dcaches.WriteReq.misses::processor.cores.core.data          101                       # number of WriteReq misses (Count)
system.cache_hierarchy.l1dcaches.WriteReq.misses::total          101                       # number of WriteReq misses (Count)
system.cache_hierarchy.l1dcaches.WriteReq.accesses::processor.cores.core.data         1350                       # number of WriteReq accesses(hits+misses) (Count)
system.cache_hierarchy.l1dcaches.WriteReq.accesses::total         1350                       # number of WriteReq accesses(hits+misses) (Count)
system.cache_hierarchy.l1dcaches.WriteReq.missRate::processor.cores.core.data     0.074815                       # miss rate for WriteReq accesses (Ratio)
system.cache_hierarchy.l1dcaches.WriteReq.missRate::total     0.074815                       # miss rate for WriteReq accesses (Ratio)
system.cache_hierarchy.l1dcaches.power_state.pwrStateResidencyTicks::UNDEFINED      4973688                       # Cumulative time (in ticks) in various power states (Tick)
system.cache_hierarchy.l1dcaches.prefetcher.demandMshrMisses            0                       # demands not covered by prefetchs (Count)
system.cache_hierarchy.l1dcaches.prefetcher.pfIssued            0                       # number of hwpf issued (Count)
system.cache_hierarchy.l1dcaches.prefetcher.pfUseful            0                       # number of useful prefetch (Count)
system.cache_hierarchy.l1dcaches.prefetcher.pfUsefulButMiss            0                       # number of hit on prefetch but cache block is not in an usable state (Count)
system.cache_hierarchy.l1dcaches.prefetcher.accuracy          nan                       # accuracy of the prefetcher (Count)
system.cache_hierarchy.l1dcaches.prefetcher.coverage          nan                       # coverage brought by this prefetcher (Count)
system.cache_hierarchy.l1dcaches.prefetcher.pfHitInCache            0                       # number of prefetches hitting in cache (Count)
system.cache_hierarchy.l1dcaches.prefetcher.pfHitInMSHR            0                       # number of prefetches hitting in a MSHR (Count)
system.cache_hierarchy.l1dcaches.prefetcher.pfHitInWB            0                       # number of prefetches hit in the Write Buffer (Count)
system.cache_hierarchy.l1dcaches.prefetcher.pfLate            0                       # number of late prefetches (hitting in cache, MSHR or WB) (Count)
system.cache_hierarchy.l1dcaches.prefetcher.pfIdentified            0                       # number of prefetch candidates identified (Count)
system.cache_hierarchy.l1dcaches.prefetcher.pfBufferHit            0                       # number of redundant prefetches already in prefetch queue (Count)
system.cache_hierarchy.l1dcaches.prefetcher.pfInCache            0                       # number of redundant prefetches already in cache/mshr dropped (Count)
system.cache_hierarchy.l1dcaches.prefetcher.pfRemovedDemand            0                       # number of prefetches dropped due to a demand for the same address (Count)
system.cache_hierarchy.l1dcaches.prefetcher.pfRemovedFull            0                       # number of prefetches dropped due to prefetch queue size (Count)
system.cache_hierarchy.l1dcaches.prefetcher.pfSpanPage            0                       # number of prefetches that crossed the page (Count)
system.cache_hierarchy.l1dcaches.prefetcher.pfUsefulSpanPage            0                       # number of prefetches that is useful and crossed the page (Count)
system.cache_hierarchy.l1dcaches.prefetcher.power_state.pwrStateResidencyTicks::UNDEFINED      4973688                       # Cumulative time (in ticks) in various power states (Tick)
system.cache_hierarchy.l1dcaches.tags.tagsInUse   122.148312                       # Average ticks per tags in use ((Tick/Count))
system.cache_hierarchy.l1dcaches.tags.totalRefs         2622                       # Total number of references to valid blocks. (Count)
system.cache_hierarchy.l1dcaches.tags.sampledRefs          184                       # Sample count of references to valid blocks. (Count)
system.cache_hierarchy.l1dcaches.tags.avgRefs    14.250000                       # Average number of references to valid blocks. ((Count/Count))
system.cache_hierarchy.l1dcaches.tags.warmupTick          666                       # The tick when the warmup percentage was hit. (Tick)
system.cache_hierarchy.l1dcaches.tags.occupancies::processor.cores.core.data   122.148312                       # Average occupied blocks per tick, per requestor ((Count/Tick))
system.cache_hierarchy.l1dcaches.tags.avgOccs::processor.cores.core.data     0.477142                       # Average percentage of cache occupancy ((Ratio/Tick))
system.cache_hierarchy.l1dcaches.tags.avgOccs::total     0.477142                       # Average percentage of cache occupancy ((Ratio/Tick))
system.cache_hierarchy.l1dcaches.tags.occupanciesTaskId::1024          184                       # Occupied blocks per task id (Count)
system.cache_hierarchy.l1dcaches.tags.ageTaskId_1024::0          184                       # Occupied blocks per task id, per block age (Count)
system.cache_hierarchy.l1dcaches.tags.ratioOccsTaskId::1024     0.718750                       # Ratio of occupied blocks and all blocks, per task id (Ratio)
system.cache_hierarchy.l1dcaches.tags.tagAccesses        21160                       # Number of tag accesses (Count)
system.cache_hierarchy.l1dcaches.tags.dataAccesses        21160                       # Number of data accesses (Count)
system.cache_hierarchy.l1dcaches.tags.power_state.pwrStateResidencyTicks::UNDEFINED      4973688                       # Cumulative time (in ticks) in various power states (Tick)
system.cache_hierarchy.l1icaches.demandHits::processor.cores.core.inst         8191                       # number of demand (read+write) hits (Count)
system.cache_hierarchy.l1icaches.demandHits::total         8191                       # number of demand (read+write) hits (Count)
system.cache_hierarchy.l1icaches.overallHits::processor.cores.core.inst         8191                       # number of overall hits (Count)
system.cache_hierarchy.l1icaches.overallHits::total         8191                       # number of overall hits (Count)
system.cache_hierarchy.l1icaches.demandMisses::processor.cores.core.inst          355                       # number of demand (read+write) misses (Count)
system.cache_hierarchy.l1icaches.demandMisses::total          355                       # number of demand (read+write) misses (Count)
system.cache_hierarchy.l1icaches.overallMisses::processor.cores.core.inst          355                       # number of overall misses (Count)
system.cache_hierarchy.l1icaches.overallMisses::total          355                       # number of overall misses (Count)
system.cache_hierarchy.l1icaches.demandAccesses::processor.cores.core.inst         8546                       # number of demand (read+write) accesses (Count)
system.cache_hierarchy.l1icaches.demandAccesses::total         8546                       # number of demand (read+write) accesses (Count)
system.cache_hierarchy.l1icaches.overallAccesses::processor.cores.core.inst         8546                       # number of overall (read+write) accesses (Count)
system.cache_hierarchy.l1icaches.overallAccesses::total         8546                       # number of overall (read+write) accesses (Count)
system.cache_hierarchy.l1icaches.demandMissRate::processor.cores.core.inst     0.041540                       # miss rate for demand accesses (Ratio)
system.cache_hierarchy.l1icaches.demandMissRate::total     0.041540                       # miss rate for demand accesses (Ratio)
system.cache_hierarchy.l1icaches.overallMissRate::processor.cores.core.inst     0.041540                       # miss rate for overall accesses (Ratio)
system.cache_hierarchy.l1icaches.overallMissRate::total     0.041540                       # miss rate for overall accesses (Ratio)
system.cache_hierarchy.l1icaches.blockedCycles::no_mshrs            0                       # number of cycles access was blocked (Cycle)
system.cache_hierarchy.l1icaches.blockedCycles::no_targets            0                       # number of cycles access was blocked (Cycle)
system.cache_hierarchy.l1icaches.blockedCauses::no_mshrs            0                       # number of times access was blocked (Count)
system.cache_hierarchy.l1icaches.blockedCauses::no_targets            0                       # number of times access was blocked (Count)
system.cache_hierarchy.l1icaches.avgBlocked::no_mshrs          nan                       # average number of cycles each access was blocked ((Cycle/Count))
system.cache_hierarchy.l1icaches.avgBlocked::no_targets          nan                       # average number of cycles each access was blocked ((Cycle/Count))
system.cache_hierarchy.l1icaches.writebacks::writebacks           99                       # number of writebacks (Count)
system.cache_hierarchy.l1icaches.writebacks::total           99                       # number of writebacks (Count)
system.cache_hierarchy.l1icaches.replacements           99                       # number of replacements (Count)
system.cache_hierarchy.l1icaches.ReadReq.hits::processor.cores.core.inst         8191                       # number of ReadReq hits (Count)
system.cache_hierarchy.l1icaches.ReadReq.hits::total         8191                       # number of ReadReq hits (Count)
system.cache_hierarchy.l1icaches.ReadReq.misses::processor.cores.core.inst          355                       # number of ReadReq misses (Count)
system.cache_hierarchy.l1icaches.ReadReq.misses::total          355                       # number of ReadReq misses (Count)
system.cache_hierarchy.l1icaches.ReadReq.accesses::processor.cores.core.inst         8546                       # number of ReadReq accesses(hits+misses) (Count)
system.cache_hierarchy.l1icaches.ReadReq.accesses::total         8546                       # number of ReadReq accesses(hits+misses) (Count)
system.cache_hierarchy.l1icaches.ReadReq.missRate::processor.cores.core.inst     0.041540                       # miss rate for ReadReq accesses (Ratio)
system.cache_hierarchy.l1icaches.ReadReq.missRate::total     0.041540                       # miss rate for ReadReq accesses (Ratio)
system.cache_hierarchy.l1icaches.power_state.pwrStateResidencyTicks::UNDEFINED      4973688                       # Cumulative time (in ticks) in various power states (Tick)
system.cache_hierarchy.l1icaches.prefetcher.demandMshrMisses            0                       # demands not covered by prefetchs (Count)
system.cache_hierarchy.l1icaches.prefetcher.pfIssued            0                       # number of hwpf issued (Count)
system.cache_hierarchy.l1icaches.prefetcher.pfUseful            0                       # number of useful prefetch (Count)
system.cache_hierarchy.l1icaches.prefetcher.pfUsefulButMiss            0                       # number of hit on prefetch but cache block is not in an usable state (Count)
system.cache_hierarchy.l1icaches.prefetcher.accuracy          nan                       # accuracy of the prefetcher (Count)
system.cache_hierarchy.l1icaches.prefetcher.coverage          nan                       # coverage brought by this prefetcher (Count)
system.cache_hierarchy.l1icaches.prefetcher.pfHitInCache            0                       # number of prefetches hitting in cache (Count)
system.cache_hierarchy.l1icaches.prefetcher.pfHitInMSHR            0                       # number of prefetches hitting in a MSHR (Count)
system.cache_hierarchy.l1icaches.prefetcher.pfHitInWB            0                       # number of prefetches hit in the Write Buffer (Count)
system.cache_hierarchy.l1icaches.prefetcher.pfLate            0                       # number of late prefetches (hitting in cache, MSHR or WB) (Count)
system.cache_hierarchy.l1icaches.prefetcher.pfIdentified            0                       # number of prefetch candidates identified (Count)
system.cache_hierarchy.l1icaches.prefetcher.pfBufferHit            0                       # number of redundant prefetches already in prefetch queue (Count)
system.cache_hierarchy.l1icaches.prefetcher.pfInCache            0                       # number of redundant prefetches already in cache/mshr dropped (Count)
system.cache_hierarchy.l1icaches.prefetcher.pfRemovedDemand            0                       # number of prefetches dropped due to a demand for the same address (Count)
system.cache_hierarchy.l1icaches.prefetcher.pfRemovedFull            0                       # number of prefetches dropped due to prefetch queue size (Count)
system.cache_hierarchy.l1icaches.prefetcher.pfSpanPage            0                       # number of prefetches that crossed the page (Count)
system.cache_hierarchy.l1icaches.prefetcher.pfUsefulSpanPage            0                       # number of prefetches that is useful and crossed the page (Count)
system.cache_hierarchy.l1icaches.prefetcher.power_state.pwrStateResidencyTicks::UNDEFINED      4973688                       # Cumulative time (in ticks) in various power states (Tick)
system.cache_hierarchy.l1icaches.tags.tagsInUse   167.408494                       # Average ticks per tags in use ((Tick/Count))
system.cache_hierarchy.l1icaches.tags.totalRefs         8546                       # Total number of references to valid blocks. (Count)
system.cache_hierarchy.l1icaches.tags.sampledRefs          355                       # Sample count of references to valid blocks. (Count)
system.cache_hierarchy.l1icaches.tags.avgRefs    24.073239                       # Average number of references to valid blocks. ((Count/Count))
system.cache_hierarchy.l1icaches.tags.warmupTick            0                       # The tick when the warmup percentage was hit. (Tick)
system.cache_hierarchy.l1icaches.tags.occupancies::processor.cores.core.inst   167.408494                       # Average occupied blocks per tick, per requestor ((Count/Tick))
system.cache_hierarchy.l1icaches.tags.avgOccs::processor.cores.core.inst     0.653939                       # Average percentage of cache occupancy ((Ratio/Tick))
system.cache_hierarchy.l1icaches.tags.avgOccs::total     0.653939                       # Average percentage of cache occupancy ((Ratio/Tick))
system.cache_hierarchy.l1icaches.tags.occupanciesTaskId::1024          256                       # Occupied blocks per task id (Count)
system.cache_hierarchy.l1icaches.tags.ageTaskId_1024::0          256                       # Occupied blocks per task id, per block age (Count)
system.cache_hierarchy.l1icaches.tags.ratioOccsTaskId::1024            1                       # Ratio of occupied blocks and all blocks, per task id (Ratio)
system.cache_hierarchy.l1icaches.tags.tagAccesses        68723                       # Number of tag accesses (Count)
system.cache_hierarchy.l1icaches.tags.dataAccesses        68723                       # Number of data accesses (Count)
system.cache_hierarchy.l1icaches.tags.power_state.pwrStateResidencyTicks::UNDEFINED      4973688                       # Cumulative time (in ticks) in various power states (Tick)
system.cache_hierarchy.l2buses.transDist::ReadResp          438                       # Transaction distribution (Count)
system.cache_hierarchy.l2buses.transDist::WritebackClean           99                       # Transaction distribution (Count)
system.cache_hierarchy.l2buses.transDist::ReadExReq          101                       # Transaction distribution (Count)
system.cache_hierarchy.l2buses.transDist::ReadExResp          101                       # Transaction distribution (Count)
system.cache_hierarchy.l2buses.transDist::ReadSharedReq          438                       # Transaction distribution (Count)
system.cache_hierarchy.l2buses.pktCount_system.cache_hierarchy.l1icaches.mem_side_port::system.cache_hierarchy.l2caches.cpu_side_port          809                       # Packet count per connected requestor and responder (Count)
system.cache_hierarchy.l2buses.pktCount_system.cache_hierarchy.l1dcaches.mem_side_port::system.cache_hierarchy.l2caches.cpu_side_port          368                       # Packet count per connected requestor and responder (Count)
system.cache_hierarchy.l2buses.pktCount::total         1177                       # Packet count per connected requestor and responder (Count)
system.cache_hierarchy.l2buses.pktSize_system.cache_hierarchy.l1icaches.mem_side_port::system.cache_hierarchy.l2caches.cpu_side_port        29056                       # Cumulative packet size per connected requestor and responder (Byte)
system.cache_hierarchy.l2buses.pktSize_system.cache_hierarchy.l1dcaches.mem_side_port::system.cache_hierarchy.l2caches.cpu_side_port        11776                       # Cumulative packet size per connected requestor and responder (Byte)
system.cache_hierarchy.l2buses.pktSize::total        40832                       # Cumulative packet size per connected requestor and responder (Byte)
system.cache_hierarchy.l2buses.snoops               1                       # Total snoops (Count)
system.cache_hierarchy.l2buses.snoopTraffic            0                       # Total snoop traffic (Byte)
system.cache_hierarchy.l2buses.snoopFanout::samples          540                       # Request fanout histogram (Count)
system.cache_hierarchy.l2buses.snoopFanout::mean     0.003704                       # Request fanout histogram (Count)
system.cache_hierarchy.l2buses.snoopFanout::stdev     0.060802                       # Request fanout histogram (Count)
system.cache_hierarchy.l2buses.snoopFanout::underflows            0      0.00%      0.00% # Request fanout histogram (Count)
system.cache_hierarchy.l2buses.snoopFanout::0          538     99.63%     99.63% # Request fanout histogram (Count)
system.cache_hierarchy.l2buses.snoopFanout::1            2      0.37%    100.00% # Request fanout histogram (Count)
system.cache_hierarchy.l2buses.snoopFanout::2            0      0.00%    100.00% # Request fanout histogram (Count)
system.cache_hierarchy.l2buses.snoopFanout::3            0      0.00%    100.00% # Request fanout histogram (Count)
system.cache_hierarchy.l2buses.snoopFanout::4            0      0.00%    100.00% # Request fanout histogram (Count)
system.cache_hierarchy.l2buses.snoopFanout::overflows            0      0.00%    100.00% # Request fanout histogram (Count)
system.cache_hierarchy.l2buses.snoopFanout::min_value            0                       # Request fanout histogram (Count)
system.cache_hierarchy.l2buses.snoopFanout::max_value            1                       # Request fanout histogram (Count)
system.cache_hierarchy.l2buses.snoopFanout::total          540                       # Request fanout histogram (Count)
system.cache_hierarchy.l2buses.power_state.pwrStateResidencyTicks::UNDEFINED      4973688                       # Cumulative time (in ticks) in various power states (Tick)
system.cache_hierarchy.l2buses.snoop_filter.totRequests          638                       # Total number of requests made to the snoop filter. (Count)
system.cache_hierarchy.l2buses.snoop_filter.hitSingleRequests          100                       # Number of requests hitting in the snoop filter with a single holder of the requested data. (Count)
system.cache_hierarchy.l2buses.snoop_filter.hitMultiRequests            0                       # Number of requests hitting in the snoop filter with multiple (>1) holders of the requested data. (Count)
system.cache_hierarchy.l2buses.snoop_filter.totSnoops            1                       # Total number of snoops made to the snoop filter. (Count)
system.cache_hierarchy.l2buses.snoop_filter.hitSingleSnoops            1                       # Number of snoops hitting in the snoop filter with a single holder of the requested data. (Count)
system.cache_hierarchy.l2buses.snoop_filter.hitMultiSnoops            0                       # Number of snoops hitting in the snoop filter with multiple (>1) holders of the requested data. (Count)
system.cache_hierarchy.l2caches.demandHits::processor.cores.core.inst            2                       # number of demand (read+write) hits (Count)
system.cache_hierarchy.l2caches.demandHits::total            2                       # number of demand (read+write) hits (Count)
system.cache_hierarchy.l2caches.overallHits::processor.cores.core.inst            2                       # number of overall hits (Count)
system.cache_hierarchy.l2caches.overallHits::total            2                       # number of overall hits (Count)
system.cache_hierarchy.l2caches.demandMisses::processor.cores.core.inst          353                       # number of demand (read+write) misses (Count)
system.cache_hierarchy.l2caches.demandMisses::processor.cores.core.data          184                       # number of demand (read+write) misses (Count)
system.cache_hierarchy.l2caches.demandMisses::total          537                       # number of demand (read+write) misses (Count)
system.cache_hierarchy.l2caches.overallMisses::processor.cores.core.inst          353                       # number of overall misses (Count)
system.cache_hierarchy.l2caches.overallMisses::processor.cores.core.data          184                       # number of overall misses (Count)
system.cache_hierarchy.l2caches.overallMisses::total          537                       # number of overall misses (Count)
system.cache_hierarchy.l2caches.demandAccesses::processor.cores.core.inst          355                       # number of demand (read+write) accesses (Count)
system.cache_hierarchy.l2caches.demandAccesses::processor.cores.core.data          184                       # number of demand (read+write) accesses (Count)
system.cache_hierarchy.l2caches.demandAccesses::total          539                       # number of demand (read+write) accesses (Count)
system.cache_hierarchy.l2caches.overallAccesses::processor.cores.core.inst          355                       # number of overall (read+write) accesses (Count)
system.cache_hierarchy.l2caches.overallAccesses::processor.cores.core.data          184                       # number of overall (read+write) accesses (Count)
system.cache_hierarchy.l2caches.overallAccesses::total          539                       # number of overall (read+write) accesses (Count)
system.cache_hierarchy.l2caches.demandMissRate::processor.cores.core.inst     0.994366                       # miss rate for demand accesses (Ratio)
system.cache_hierarchy.l2caches.demandMissRate::processor.cores.core.data            1                       # miss rate for demand accesses (Ratio)
system.cache_hierarchy.l2caches.demandMissRate::total     0.996289                       # miss rate for demand accesses (Ratio)
system.cache_hierarchy.l2caches.overallMissRate::processor.cores.core.inst     0.994366                       # miss rate for overall accesses (Ratio)
system.cache_hierarchy.l2caches.overallMissRate::processor.cores.core.data            1                       # miss rate for overall accesses (Ratio)
system.cache_hierarchy.l2caches.overallMissRate::total     0.996289                       # miss rate for overall accesses (Ratio)
system.cache_hierarchy.l2caches.blockedCycles::no_mshrs            0                       # number of cycles access was blocked (Cycle)
system.cache_hierarchy.l2caches.blockedCycles::no_targets            0                       # number of cycles access was blocked (Cycle)
system.cache_hierarchy.l2caches.blockedCauses::no_mshrs            0                       # number of times access was blocked (Count)
system.cache_hierarchy.l2caches.blockedCauses::no_targets            0                       # number of times access was blocked (Count)
system.cache_hierarchy.l2caches.avgBlocked::no_mshrs          nan                       # average number of cycles each access was blocked ((Cycle/Count))
system.cache_hierarchy.l2caches.avgBlocked::no_targets          nan                       # average number of cycles each access was blocked ((Cycle/Count))
system.cache_hierarchy.l2caches.replacements            1                       # number of replacements (Count)
system.cache_hierarchy.l2caches.ReadExReq.misses::processor.cores.core.data          101                       # number of ReadExReq misses (Count)
system.cache_hierarchy.l2caches.ReadExReq.misses::total          101                       # number of ReadExReq misses (Count)
system.cache_hierarchy.l2caches.ReadExReq.accesses::processor.cores.core.data          101                       # number of ReadExReq accesses(hits+misses) (Count)
system.cache_hierarchy.l2caches.ReadExReq.accesses::total          101                       # number of ReadExReq accesses(hits+misses) (Count)
system.cache_hierarchy.l2caches.ReadExReq.missRate::processor.cores.core.data            1                       # miss rate for ReadExReq accesses (Ratio)
system.cache_hierarchy.l2caches.ReadExReq.missRate::total            1                       # miss rate for ReadExReq accesses (Ratio)
system.cache_hierarchy.l2caches.ReadSharedReq.hits::processor.cores.core.inst            2                       # number of ReadSharedReq hits (Count)
system.cache_hierarchy.l2caches.ReadSharedReq.hits::total            2                       # number of ReadSharedReq hits (Count)
system.cache_hierarchy.l2caches.ReadSharedReq.misses::processor.cores.core.inst          353                       # number of ReadSharedReq misses (Count)
system.cache_hierarchy.l2caches.ReadSharedReq.misses::processor.cores.core.data           83                       # number of ReadSharedReq misses (Count)
system.cache_hierarchy.l2caches.ReadSharedReq.misses::total          436                       # number of ReadSharedReq misses (Count)
system.cache_hierarchy.l2caches.ReadSharedReq.accesses::processor.cores.core.inst          355                       # number of ReadSharedReq accesses(hits+misses) (Count)
system.cache_hierarchy.l2caches.ReadSharedReq.accesses::processor.cores.core.data           83                       # number of ReadSharedReq accesses(hits+misses) (Count)
system.cache_hierarchy.l2caches.ReadSharedReq.accesses::total          438                       # number of ReadSharedReq accesses(hits+misses) (Count)
system.cache_hierarchy.l2caches.ReadSharedReq.missRate::processor.cores.core.inst     0.994366                       # miss rate for ReadSharedReq accesses (Ratio)
system.cache_hierarchy.l2caches.ReadSharedReq.missRate::processor.cores.core.data            1                       # miss rate for ReadSharedReq accesses (Ratio)
system.cache_hierarchy.l2caches.ReadSharedReq.missRate::total     0.995434                       # miss rate for ReadSharedReq accesses (Ratio)
system.cache_hierarchy.l2caches.WritebackClean.hits::writebacks           99                       # number of WritebackClean hits (Count)
system.cache_hierarchy.l2caches.WritebackClean.hits::total           99                       # number of WritebackClean hits (Count)
system.cache_hierarchy.l2caches.WritebackClean.accesses::writebacks           99                       # number of WritebackClean accesses(hits+misses) (Count)
system.cache_hierarchy.l2caches.WritebackClean.accesses::total           99                       # number of WritebackClean accesses(hits+misses) (Count)
system.cache_hierarchy.l2caches.power_state.pwrStateResidencyTicks::UNDEFINED      4973688                       # Cumulative time (in ticks) in various power states (Tick)
system.cache_hierarchy.l2caches.prefetcher.demandMshrMisses            0                       # demands not covered by prefetchs (Count)
system.cache_hierarchy.l2caches.prefetcher.pfIssued            0                       # number of hwpf issued (Count)
system.cache_hierarchy.l2caches.prefetcher.pfUseful            0                       # number of useful prefetch (Count)
system.cache_hierarchy.l2caches.prefetcher.pfUsefulButMiss            0                       # number of hit on prefetch but cache block is not in an usable state (Count)
system.cache_hierarchy.l2caches.prefetcher.accuracy          nan                       # accuracy of the prefetcher (Count)
system.cache_hierarchy.l2caches.prefetcher.coverage          nan                       # coverage brought by this prefetcher (Count)
system.cache_hierarchy.l2caches.prefetcher.pfHitInCache            0                       # number of prefetches hitting in cache (Count)
system.cache_hierarchy.l2caches.prefetcher.pfHitInMSHR            0                       # number of prefetches hitting in a MSHR (Count)
system.cache_hierarchy.l2caches.prefetcher.pfHitInWB            0                       # number of prefetches hit in the Write Buffer (Count)
system.cache_hierarchy.l2caches.prefetcher.pfLate            0                       # number of late prefetches (hitting in cache, MSHR or WB) (Count)
system.cache_hierarchy.l2caches.prefetcher.pfIdentified            0                       # number of prefetch candidates identified (Count)
system.cache_hierarchy.l2caches.prefetcher.pfBufferHit            0                       # number of redundant prefetches already in prefetch queue (Count)
system.cache_hierarchy.l2caches.prefetcher.pfInCache            0                       # number of redundant prefetches already in cache/mshr dropped (Count)
system.cache_hierarchy.l2caches.prefetcher.pfRemovedDemand            0                       # number of prefetches dropped due to a demand for the same address (Count)
system.cache_hierarchy.l2caches.prefetcher.pfRemovedFull            0                       # number of prefetches dropped due to prefetch queue size (Count)
system.cache_hierarchy.l2caches.prefetcher.pfSpanPage            0                       # number of prefetches that crossed the page (Count)
system.cache_hierarchy.l2caches.prefetcher.pfUsefulSpanPage            0                       # number of prefetches that is useful and crossed the page (Count)
system.cache_hierarchy.l2caches.prefetcher.power_state.pwrStateResidencyTicks::UNDEFINED      4973688                       # Cumulative time (in ticks) in various power states (Tick)
system.cache_hierarchy.l2caches.tags.tagsInUse   305.969449                       # Average ticks per tags in use ((Tick/Count))
system.cache_hierarchy.l2caches.tags.totalRefs          638                       # Total number of references to valid blocks. (Count)
system.cache_hierarchy.l2caches.tags.sampledRefs          538                       # Sample count of references to valid blocks. (Count)
system.cache_hierarchy.l2caches.tags.avgRefs     1.185874                       # Average number of references to valid blocks. ((Count/Count))
system.cache_hierarchy.l2caches.tags.warmupTick            0                       # The tick when the warmup percentage was hit. (Tick)
system.cache_hierarchy.l2caches.tags.occupancies::writebacks     0.288029                       # Average occupied blocks per tick, per requestor ((Count/Tick))
system.cache_hierarchy.l2caches.tags.occupancies::processor.cores.core.inst   183.533108                       # Average occupied blocks per tick, per requestor ((Count/Tick))
system.cache_hierarchy.l2caches.tags.occupancies::processor.cores.core.data   122.148312                       # Average occupied blocks per tick, per requestor ((Count/Tick))
system.cache_hierarchy.l2caches.tags.avgOccs::writebacks     0.000070                       # Average percentage of cache occupancy ((Ratio/Tick))
system.cache_hierarchy.l2caches.tags.avgOccs::processor.cores.core.inst     0.044808                       # Average percentage of cache occupancy ((Ratio/Tick))
system.cache_hierarchy.l2caches.tags.avgOccs::processor.cores.core.data     0.029821                       # Average percentage of cache occupancy ((Ratio/Tick))
system.cache_hierarchy.l2caches.tags.avgOccs::total     0.074700                       # Average percentage of cache occupancy ((Ratio/Tick))
system.cache_hierarchy.l2caches.tags.occupanciesTaskId::1024          537                       # Occupied blocks per task id (Count)
system.cache_hierarchy.l2caches.tags.ageTaskId_1024::0          537                       # Occupied blocks per task id, per block age (Count)
system.cache_hierarchy.l2caches.tags.ratioOccsTaskId::1024     0.131104                       # Ratio of occupied blocks and all blocks, per task id (Ratio)
system.cache_hierarchy.l2caches.tags.tagAccesses        10746                       # Number of tag accesses (Count)
system.cache_hierarchy.l2caches.tags.dataAccesses        10746                       # Number of data accesses (Count)
system.cache_hierarchy.l2caches.tags.power_state.pwrStateResidencyTicks::UNDEFINED      4973688                       # Cumulative time (in ticks) in various power states (Tick)
system.cache_hierarchy.membus.transDist::ReadResp          436                       # Transaction distribution (Count)
system.cache_hierarchy.membus.transDist::ReadExReq          101                       # Transaction distribution (Count)
system.cache_hierarchy.membus.transDist::ReadExResp          101                       # Transaction distribution (Count)
system.cache_hierarchy.membus.transDist::ReadSharedReq          436                       # Transaction distribution (Count)
system.cache_hierarchy.membus.pktCount_system.cache_hierarchy.l2caches.mem_side_port::system.memory.mem_ctrl.port         1074                       # Packet count per connected requestor and responder (Count)
system.cache_hierarchy.membus.pktCount_system.cache_hierarchy.l2caches.mem_side_port::total         1074                       # Packet count per connected requestor and responder (Count)
system.cache_hierarchy.membus.pktCount::total         1074                       # Packet count per connected requestor and responder (Count)
system.cache_hierarchy.membus.pktSize_system.cache_hierarchy.l2caches.mem_side_port::system.memory.mem_ctrl.port        34368                       # Cumulative packet size per connected requestor and responder (Byte)
system.cache_hierarchy.membus.pktSize_system.cache_hierarchy.l2caches.mem_side_port::total        34368                       # Cumulative packet size per connected requestor and responder (Byte)
system.cache_hierarchy.membus.pktSize::total        34368                       # Cumulative packet size per connected requestor and responder (Byte)
system.cache_hierarchy.membus.snoops                0                       # Total snoops (Count)
system.cache_hierarchy.membus.snoopTraffic            0                       # Total snoop traffic (Byte)
system.cache_hierarchy.membus.snoopFanout::samples          537                       # Request fanout histogram (Count)
system.cache_hierarchy.membus.snoopFanout::mean            0                       # Request fanout histogram (Count)
system.cache_hierarchy.membus.snoopFanout::stdev            0                       # Request fanout histogram (Count)
system.cache_hierarchy.membus.snoopFanout::underflows            0      0.00%      0.00% # Request fanout histogram (Count)
system.cache_hierarchy.membus.snoopFanout::0          537    100.00%    100.00% # Request fanout histogram (Count)
system.cache_hierarchy.membus.snoopFanout::1            0      0.00%    100.00% # Request fanout histogram (Count)
system.cache_hierarchy.membus.snoopFanout::overflows            0      0.00%    100.00% # Request fanout histogram (Count)
system.cache_hierarchy.membus.snoopFanout::min_value            0                       # Request fanout histogram (Count)
system.cache_hierarchy.membus.snoopFanout::max_value            0                       # Request fanout histogram (Count)
system.cache_hierarchy.membus.snoopFanout::total          537                       # Request fanout histogram (Count)
system.cache_hierarchy.membus.badaddr_responder.power_state.pwrStateResidencyTicks::UNDEFINED      4973688                       # Cumulative time (in ticks) in various power states (Tick)
system.cache_hierarchy.membus.power_state.pwrStateResidencyTicks::UNDEFINED      4973688                       # Cumulative time (in ticks) in various power states (Tick)
system.cache_hierarchy.membus.snoop_filter.totRequests          537                       # Total number of requests made to the snoop filter. (Count)
system.cache_hierarchy.membus.snoop_filter.hitSingleRequests            0                       # Number of requests hitting in the snoop filter with a single holder of the requested data. (Count)
system.cache_hierarchy.membus.snoop_filter.hitMultiRequests            0                       # Number of requests hitting in the snoop filter with multiple (>1) holders of the requested data. (Count)
system.cache_hierarchy.membus.snoop_filter.totSnoops            0                       # Total number of snoops made to the snoop filter. (Count)
system.cache_hierarchy.membus.snoop_filter.hitSingleSnoops            0                       # Number of snoops hitting in the snoop filter with a single holder of the requested data. (Count)
system.cache_hierarchy.membus.snoop_filter.hitMultiSnoops            0                       # Number of snoops hitting in the snoop filter with multiple (>1) holders of the requested data. (Count)
system.clk_domain.clock                           333                       # Clock period in ticks (Tick)
system.clk_domain.voltage_domain.voltage            1                       # Voltage in Volts (Volt)
system.memory.mem_ctrl.priorityMinLatency 0.000000000000                       # per QoS priority minimum request to response latency (Second)
system.memory.mem_ctrl.priorityMaxLatency 0.000000000000                       # per QoS priority maximum request to response latency (Second)
system.memory.mem_ctrl.numReadWriteTurnArounds            0                       # Number of turnarounds from READ to WRITE (Count)
system.memory.mem_ctrl.numWriteReadTurnArounds            0                       # Number of turnarounds from WRITE to READ (Count)
system.memory.mem_ctrl.numStayReadState             0                       # Number of times bus staying in READ state (Count)
system.memory.mem_ctrl.numStayWriteState            0                       # Number of times bus staying in WRITE state (Count)
system.memory.mem_ctrl.readReqs                     0                       # Number of read requests accepted (Count)
system.memory.mem_ctrl.writeReqs                    0                       # Number of write requests accepted (Count)
system.memory.mem_ctrl.readBursts                   0                       # Number of controller read bursts, including those serviced by the write queue (Count)
system.memory.mem_ctrl.writeBursts                  0                       # Number of controller write bursts, including those merged in the write queue (Count)
system.memory.mem_ctrl.servicedByWrQ                0                       # Number of controller read bursts serviced by the write queue (Count)
system.memory.mem_ctrl.mergedWrBursts               0                       # Number of controller write bursts merged with an existing one (Count)
system.memory.mem_ctrl.neitherReadNorWriteReqs            0                       # Number of requests that are neither read nor write (Count)
system.memory.mem_ctrl.avgRdQLen                 0.00                       # Average read queue length when enqueuing ((Count/Tick))
system.memory.mem_ctrl.avgWrQLen                 0.00                       # Average write queue length when enqueuing ((Count/Tick))
system.memory.mem_ctrl.numRdRetry                   0                       # Number of times read queue was full causing retry (Count)
system.memory.mem_ctrl.numWrRetry                   0                       # Number of times write queue was full causing retry (Count)
system.memory.mem_ctrl.readPktSize::0               0                       # Read request sizes (log2) (Count)
system.memory.mem_ctrl.readPktSize::1               0                       # Read request sizes (log2) (Count)
system.memory.mem_ctrl.readPktSize::2               0                       # Read request sizes (log2) (Count)
system.memory.mem_ctrl.readPktSize::3               0                       # Read request sizes (log2) (Count)
system.memory.mem_ctrl.readPktSize::4               0                       # Read request sizes (log2) (Count)
system.memory.mem_ctrl.readPktSize::5               0                       # Read request sizes (log2) (Count)
system.memory.mem_ctrl.readPktSize::6               0                       # Read request sizes (log2) (Count)
system.memory.mem_ctrl.writePktSize::0              0                       # Write request sizes (log2) (Count)
system.memory.mem_ctrl.writePktSize::1              0                       # Write request sizes (log2) (Count)
system.memory.mem_ctrl.writePktSize::2              0                       # Write request sizes (log2) (Count)
system.memory.mem_ctrl.writePktSize::3              0                       # Write request sizes (log2) (Count)
system.memory.mem_ctrl.writePktSize::4              0                       # Write request sizes (log2) (Count)
system.memory.mem_ctrl.writePktSize::5              0                       # Write request sizes (log2) (Count)
system.memory.mem_ctrl.writePktSize::6              0                       # Write request sizes (log2) (Count)
system.memory.mem_ctrl.rdQLenPdf::0                 0                       # What read queue length does an incoming req see (Count)
system.memory.mem_ctrl.rdQLenPdf::1                 0                       # What read queue length does an incoming req see (Count)
system.memory.mem_ctrl.rdQLenPdf::2                 0                       # What read queue length does an incoming req see (Count)
system.memory.mem_ctrl.rdQLenPdf::3                 0                       # What read queue length does an incoming req see (Count)
system.memory.mem_ctrl.rdQLenPdf::4                 0                       # What read queue length does an incoming req see (Count)
system.memory.mem_ctrl.rdQLenPdf::5                 0                       # What read queue length does an incoming req see (Count)
system.memory.mem_ctrl.rdQLenPdf::6                 0                       # What read queue length does an incoming req see (Count)
system.memory.mem_ctrl.rdQLenPdf::7                 0                       # What read queue length does an incoming req see (Count)
system.memory.mem_ctrl.rdQLenPdf::8                 0                       # What read queue length does an incoming req see (Count)
system.memory.mem_ctrl.rdQLenPdf::9                 0                       # What read queue length does an incoming req see (Count)
system.memory.mem_ctrl.rdQLenPdf::10                0                       # What read queue length does an incoming req see (Count)
system.memory.mem_ctrl.rdQLenPdf::11                0                       # What read queue length does an incoming req see (Count)
system.memory.mem_ctrl.rdQLenPdf::12                0                       # What read queue length does an incoming req see (Count)
system.memory.mem_ctrl.rdQLenPdf::13                0                       # What read queue length does an incoming req see (Count)
system.memory.mem_ctrl.rdQLenPdf::14                0                       # What read queue length does an incoming req see (Count)
system.memory.mem_ctrl.rdQLenPdf::15                0                       # What read queue length does an incoming req see (Count)
system.memory.mem_ctrl.rdQLenPdf::16                0                       # What read queue length does an incoming req see (Count)
system.memory.mem_ctrl.rdQLenPdf::17                0                       # What read queue length does an incoming req see (Count)
system.memory.mem_ctrl.rdQLenPdf::18                0                       # What read queue length does an incoming req see (Count)
system.memory.mem_ctrl.rdQLenPdf::19                0                       # What read queue length does an incoming req see (Count)
system.memory.mem_ctrl.rdQLenPdf::20                0                       # What read queue length does an incoming req see (Count)
system.memory.mem_ctrl.rdQLenPdf::21                0                       # What read queue length does an incoming req see (Count)
system.memory.mem_ctrl.rdQLenPdf::22                0                       # What read queue length does an incoming req see (Count)
system.memory.mem_ctrl.rdQLenPdf::23                0                       # What read queue length does an incoming req see (Count)
system.memory.mem_ctrl.rdQLenPdf::24                0                       # What read queue length does an incoming req see (Count)
system.memory.mem_ctrl.rdQLenPdf::25                0                       # What read queue length does an incoming req see (Count)
system.memory.mem_ctrl.rdQLenPdf::26                0                       # What read queue length does an incoming req see (Count)
system.memory.mem_ctrl.rdQLenPdf::27                0                       # What read queue length does an incoming req see (Count)
system.memory.mem_ctrl.rdQLenPdf::28                0                       # What read queue length does an incoming req see (Count)
system.memory.mem_ctrl.rdQLenPdf::29                0                       # What read queue length does an incoming req see (Count)
system.memory.mem_ctrl.rdQLenPdf::30                0                       # What read queue length does an incoming req see (Count)
system.memory.mem_ctrl.rdQLenPdf::31                0                       # What read queue length does an incoming req see (Count)
system.memory.mem_ctrl.wrQLenPdf::0                 0                       # What write queue length does an incoming req see (Count)
system.memory.mem_ctrl.wrQLenPdf::1                 0                       # What write queue length does an incoming req see (Count)
system.memory.mem_ctrl.wrQLenPdf::2                 0                       # What write queue length does an incoming req see (Count)
system.memory.mem_ctrl.wrQLenPdf::3                 0                       # What write queue length does an incoming req see (Count)
system.memory.mem_ctrl.wrQLenPdf::4                 0                       # What write queue length does an incoming req see (Count)
system.memory.mem_ctrl.wrQLenPdf::5                 0                       # What write queue length does an incoming req see (Count)
system.memory.mem_ctrl.wrQLenPdf::6                 0                       # What write queue length does an incoming req see (Count)
system.memory.mem_ctrl.wrQLenPdf::7                 0                       # What write queue length does an incoming req see (Count)
system.memory.mem_ctrl.wrQLenPdf::8                 0                       # What write queue length does an incoming req see (Count)
system.memory.mem_ctrl.wrQLenPdf::9                 0                       # What write queue length does an incoming req see (Count)
system.memory.mem_ctrl.wrQLenPdf::10                0                       # What write queue length does an incoming req see (Count)
system.memory.mem_ctrl.wrQLenPdf::11                0                       # What write queue length does an incoming req see (Count)
system.memory.mem_ctrl.wrQLenPdf::12                0                       # What write queue length does an incoming req see (Count)
system.memory.mem_ctrl.wrQLenPdf::13                0                       # What write queue length does an incoming req see (Count)
system.memory.mem_ctrl.wrQLenPdf::14                0                       # What write queue length does an incoming req see (Count)
system.memory.mem_ctrl.wrQLenPdf::15                0                       # What write queue length does an incoming req see (Count)
system.memory.mem_ctrl.wrQLenPdf::16                0                       # What write queue length does an incoming req see (Count)
system.memory.mem_ctrl.wrQLenPdf::17                0                       # What write queue length does an incoming req see (Count)
system.memory.mem_ctrl.wrQLenPdf::18                0                       # What write queue length does an incoming req see (Count)
system.memory.mem_ctrl.wrQLenPdf::19                0                       # What write queue length does an incoming req see (Count)
system.memory.mem_ctrl.wrQLenPdf::20                0                       # What write queue length does an incoming req see (Count)
system.memory.mem_ctrl.wrQLenPdf::21                0                       # What write queue length does an incoming req see (Count)
system.memory.mem_ctrl.wrQLenPdf::22                0                       # What write queue length does an incoming req see (Count)
system.memory.mem_ctrl.wrQLenPdf::23                0                       # What write queue length does an incoming req see (Count)
system.memory.mem_ctrl.wrQLenPdf::24                0                       # What write queue length does an incoming req see (Count)
system.memory.mem_ctrl.wrQLenPdf::25                0                       # What write queue length does an incoming req see (Count)
system.memory.mem_ctrl.wrQLenPdf::26                0                       # What write queue length does an incoming req see (Count)
system.memory.mem_ctrl.wrQLenPdf::27                0                       # What write queue length does an incoming req see (Count)
system.memory.mem_ctrl.wrQLenPdf::28                0                       # What write queue length does an incoming req see (Count)
system.memory.mem_ctrl.wrQLenPdf::29                0                       # What write queue length does an incoming req see (Count)
system.memory.mem_ctrl.wrQLenPdf::30                0                       # What write queue length does an incoming req see (Count)
system.memory.mem_ctrl.wrQLenPdf::31                0                       # What write queue length does an incoming req see (Count)
system.memory.mem_ctrl.wrQLenPdf::32                0                       # What write queue length does an incoming req see (Count)
system.memory.mem_ctrl.wrQLenPdf::33                0                       # What write queue length does an incoming req see (Count)
system.memory.mem_ctrl.wrQLenPdf::34                0                       # What write queue length does an incoming req see (Count)
system.memory.mem_ctrl.wrQLenPdf::35                0                       # What write queue length does an incoming req see (Count)
system.memory.mem_ctrl.wrQLenPdf::36                0                       # What write queue length does an incoming req see (Count)
system.memory.mem_ctrl.wrQLenPdf::37                0                       # What write queue length does an incoming req see (Count)
system.memory.mem_ctrl.wrQLenPdf::38                0                       # What write queue length does an incoming req see (Count)
system.memory.mem_ctrl.wrQLenPdf::39                0                       # What write queue length does an incoming req see (Count)
system.memory.mem_ctrl.wrQLenPdf::40                0                       # What write queue length does an incoming req see (Count)
system.memory.mem_ctrl.wrQLenPdf::41                0                       # What write queue length does an incoming req see (Count)
system.memory.mem_ctrl.wrQLenPdf::42                0                       # What write queue length does an incoming req see (Count)
system.memory.mem_ctrl.wrQLenPdf::43                0                       # What write queue length does an incoming req see (Count)
system.memory.mem_ctrl.wrQLenPdf::44                0                       # What write queue length does an incoming req see (Count)
system.memory.mem_ctrl.wrQLenPdf::45                0                       # What write queue length does an incoming req see (Count)
system.memory.mem_ctrl.wrQLenPdf::46                0                       # What write queue length does an incoming req see (Count)
system.memory.mem_ctrl.wrQLenPdf::47                0                       # What write queue length does an incoming req see (Count)
system.memory.mem_ctrl.wrQLenPdf::48                0                       # What write queue length does an incoming req see (Count)
system.memory.mem_ctrl.wrQLenPdf::49                0                       # What write queue length does an incoming req see (Count)
system.memory.mem_ctrl.wrQLenPdf::50                0                       # What write queue length does an incoming req see (Count)
system.memory.mem_ctrl.wrQLenPdf::51                0                       # What write queue length does an incoming req see (Count)
system.memory.mem_ctrl.wrQLenPdf::52                0                       # What write queue length does an incoming req see (Count)
system.memory.mem_ctrl.wrQLenPdf::53                0                       # What write queue length does an incoming req see (Count)
system.memory.mem_ctrl.wrQLenPdf::54                0                       # What write queue length does an incoming req see (Count)
system.memory.mem_ctrl.wrQLenPdf::55                0                       # What write queue length does an incoming req see (Count)
system.memory.mem_ctrl.wrQLenPdf::56                0                       # What write queue length does an incoming req see (Count)
system.memory.mem_ctrl.wrQLenPdf::57                0                       # What write queue length does an incoming req see (Count)
system.memory.mem_ctrl.wrQLenPdf::58                0                       # What write queue length does an incoming req see (Count)
system.memory.mem_ctrl.wrQLenPdf::59                0                       # What write queue length does an incoming req see (Count)
system.memory.mem_ctrl.wrQLenPdf::60                0                       # What write queue length does an incoming req see (Count)
system.memory.mem_ctrl.wrQLenPdf::61                0                       # What write queue length does an incoming req see (Count)
system.memory.mem_ctrl.wrQLenPdf::62                0                       # What write queue length does an incoming req see (Count)
system.memory.mem_ctrl.wrQLenPdf::63                0                       # What write queue length does an incoming req see (Count)
system.memory.mem_ctrl.bytesReadWrQ                 0                       # Total number of bytes read from write queue (Byte)
system.memory.mem_ctrl.bytesReadSys                 0                       # Total read bytes from the system interface side (Byte)
system.memory.mem_ctrl.bytesWrittenSys              0                       # Total written bytes from the system interface side (Byte)
system.memory.mem_ctrl.avgRdBWSys          0.00000000                       # Average system read bandwidth in Byte/s ((Byte/Second))
system.memory.mem_ctrl.avgWrBWSys          0.00000000                       # Average system write bandwidth in Byte/s ((Byte/Second))
system.memory.mem_ctrl.totGap                       0                       # Total gap between requests (Tick)
system.memory.mem_ctrl.avgGap                     nan                       # Average gap between requests ((Tick/Count))
system.memory.mem_ctrl.dram.bytesRead::processor.cores.core.inst        22592                       # Number of bytes read from this memory (Byte)
system.memory.mem_ctrl.dram.bytesRead::processor.cores.core.data        11776                       # Number of bytes read from this memory (Byte)
system.memory.mem_ctrl.dram.bytesRead::total        34368                       # Number of bytes read from this memory (Byte)
system.memory.mem_ctrl.dram.bytesInstRead::processor.cores.core.inst        22592                       # Number of instructions bytes read from this memory (Byte)
system.memory.mem_ctrl.dram.bytesInstRead::total        22592                       # Number of instructions bytes read from this memory (Byte)
system.memory.mem_ctrl.dram.numReads::processor.cores.core.inst          353                       # Number of read requests responded to by this memory (Count)
system.memory.mem_ctrl.dram.numReads::processor.cores.core.data          184                       # Number of read requests responded to by this memory (Count)
system.memory.mem_ctrl.dram.numReads::total          537                       # Number of read requests responded to by this memory (Count)
system.memory.mem_ctrl.dram.bwRead::processor.cores.core.inst   4542303418                       # Total read bandwidth from this memory ((Byte/Second))
system.memory.mem_ctrl.dram.bwRead::processor.cores.core.data   2367659572                       # Total read bandwidth from this memory ((Byte/Second))
system.memory.mem_ctrl.dram.bwRead::total   6909962989                       # Total read bandwidth from this memory ((Byte/Second))
system.memory.mem_ctrl.dram.bwInstRead::processor.cores.core.inst   4542303418                       # Instruction read bandwidth from this memory ((Byte/Second))
system.memory.mem_ctrl.dram.bwInstRead::total   4542303418                       # Instruction read bandwidth from this memory ((Byte/Second))
system.memory.mem_ctrl.dram.bwTotal::processor.cores.core.inst   4542303418                       # Total bandwidth to/from this memory ((Byte/Second))
system.memory.mem_ctrl.dram.bwTotal::processor.cores.core.data   2367659572                       # Total bandwidth to/from this memory ((Byte/Second))
system.memory.mem_ctrl.dram.bwTotal::total   6909962989                       # Total bandwidth to/from this memory ((Byte/Second))
system.memory.mem_ctrl.dram.readBursts              0                       # Number of DRAM read bursts (Count)
system.memory.mem_ctrl.dram.writeBursts             0                       # Number of DRAM write bursts (Count)
system.memory.mem_ctrl.dram.perBankRdBursts::0            0                       # Per bank write bursts (Count)
system.memory.mem_ctrl.dram.perBankRdBursts::1            0                       # Per bank write bursts (Count)
system.memory.mem_ctrl.dram.perBankRdBursts::2            0                       # Per bank write bursts (Count)
system.memory.mem_ctrl.dram.perBankRdBursts::3            0                       # Per bank write bursts (Count)
system.memory.mem_ctrl.dram.perBankRdBursts::4            0                       # Per bank write bursts (Count)
system.memory.mem_ctrl.dram.perBankRdBursts::5            0                       # Per bank write bursts (Count)
system.memory.mem_ctrl.dram.perBankRdBursts::6            0                       # Per bank write bursts (Count)
system.memory.mem_ctrl.dram.perBankRdBursts::7            0                       # Per bank write bursts (Count)
system.memory.mem_ctrl.dram.perBankRdBursts::8            0                       # Per bank write bursts (Count)
system.memory.mem_ctrl.dram.perBankRdBursts::9            0                       # Per bank write bursts (Count)
system.memory.mem_ctrl.dram.perBankRdBursts::10            0                       # Per bank write bursts (Count)
system.memory.mem_ctrl.dram.perBankRdBursts::11            0                       # Per bank write bursts (Count)
system.memory.mem_ctrl.dram.perBankRdBursts::12            0                       # Per bank write bursts (Count)
system.memory.mem_ctrl.dram.perBankRdBursts::13            0                       # Per bank write bursts (Count)
system.memory.mem_ctrl.dram.perBankRdBursts::14            0                       # Per bank write bursts (Count)
system.memory.mem_ctrl.dram.perBankRdBursts::15            0                       # Per bank write bursts (Count)
system.memory.mem_ctrl.dram.perBankWrBursts::0            0                       # Per bank write bursts (Count)
system.memory.mem_ctrl.dram.perBankWrBursts::1            0                       # Per bank write bursts (Count)
system.memory.mem_ctrl.dram.perBankWrBursts::2            0                       # Per bank write bursts (Count)
system.memory.mem_ctrl.dram.perBankWrBursts::3            0                       # Per bank write bursts (Count)
system.memory.mem_ctrl.dram.perBankWrBursts::4            0                       # Per bank write bursts (Count)
system.memory.mem_ctrl.dram.perBankWrBursts::5            0                       # Per bank write bursts (Count)
system.memory.mem_ctrl.dram.perBankWrBursts::6            0                       # Per bank write bursts (Count)
system.memory.mem_ctrl.dram.perBankWrBursts::7            0                       # Per bank write bursts (Count)
system.memory.mem_ctrl.dram.perBankWrBursts::8            0                       # Per bank write bursts (Count)
system.memory.mem_ctrl.dram.perBankWrBursts::9            0                       # Per bank write bursts (Count)
system.memory.mem_ctrl.dram.perBankWrBursts::10            0                       # Per bank write bursts (Count)
system.memory.mem_ctrl.dram.perBankWrBursts::11            0                       # Per bank write bursts (Count)
system.memory.mem_ctrl.dram.perBankWrBursts::12            0                       # Per bank write bursts (Count)
system.memory.mem_ctrl.dram.perBankWrBursts::13            0                       # Per bank write bursts (Count)
system.memory.mem_ctrl.dram.perBankWrBursts::14            0                       # Per bank write bursts (Count)
system.memory.mem_ctrl.dram.perBankWrBursts::15            0                       # Per bank write bursts (Count)
system.memory.mem_ctrl.dram.totQLat                 0                       # Total ticks spent queuing (Tick)
system.memory.mem_ctrl.dram.totBusLat               0                       # Total ticks spent in databus transfers (Tick)
system.memory.mem_ctrl.dram.totMemAccLat            0                       # Total ticks spent from burst creation until serviced by the DRAM (Tick)
system.memory.mem_ctrl.dram.avgQLat               nan                       # Average queueing delay per DRAM burst ((Tick/Count))
system.memory.mem_ctrl.dram.avgBusLat             nan                       # Average bus latency per DRAM burst ((Tick/Count))
system.memory.mem_ctrl.dram.avgMemAccLat          nan                       # Average memory access latency per DRAM burst ((Tick/Count))
system.memory.mem_ctrl.dram.readRowHits             0                       # Number of row buffer hits during reads (Count)
system.memory.mem_ctrl.dram.writeRowHits            0                       # Number of row buffer hits during writes (Count)
system.memory.mem_ctrl.dram.readRowHitRate          nan                       # Row buffer hit rate for reads (Ratio)
system.memory.mem_ctrl.dram.writeRowHitRate          nan                       # Row buffer hit rate for writes (Ratio)
system.memory.mem_ctrl.dram.bytesRead               0                       # Total bytes read (Byte)
system.memory.mem_ctrl.dram.bytesWritten            0                       # Total bytes written (Byte)
system.memory.mem_ctrl.dram.avgRdBW                 0                       # Average DRAM read bandwidth in MiBytes/s ((Byte/Second))
system.memory.mem_ctrl.dram.avgWrBW                 0                       # Average DRAM write bandwidth in MiBytes/s ((Byte/Second))
system.memory.mem_ctrl.dram.peakBW           12800.00                       # Theoretical peak bandwidth in MiByte/s ((Byte/Second))
system.memory.mem_ctrl.dram.busUtil              0.00                       # Data bus utilization in percentage (Ratio)
system.memory.mem_ctrl.dram.busUtilRead          0.00                       # Data bus utilization in percentage for reads (Ratio)
system.memory.mem_ctrl.dram.busUtilWrite         0.00                       # Data bus utilization in percentage for writes (Ratio)
system.memory.mem_ctrl.dram.pageHitRate           nan                       # Row buffer hit rate, read and write combined (Ratio)
system.memory.mem_ctrl.dram.power_state.pwrStateResidencyTicks::UNDEFINED      4973688                       # Cumulative time (in ticks) in various power states (Tick)
system.memory.mem_ctrl.dram.rank0.actEnergy            0                       # Energy for activate commands per rank (pJ) (Joule)
system.memory.mem_ctrl.dram.rank0.preEnergy            0                       # Energy for precharge commands per rank (pJ) (Joule)
system.memory.mem_ctrl.dram.rank0.readEnergy            0                       # Energy for read commands per rank (pJ) (Joule)
system.memory.mem_ctrl.dram.rank0.writeEnergy            0                       # Energy for write commands per rank (pJ) (Joule)
system.memory.mem_ctrl.dram.rank0.refreshEnergy            0                       # Energy for refresh commands per rank (pJ) (Joule)
system.memory.mem_ctrl.dram.rank0.actBackEnergy            0                       # Energy for active background per rank (pJ) (Joule)
system.memory.mem_ctrl.dram.rank0.preBackEnergy      1909920                       # Energy for precharge background per rank (pJ) (Joule)
system.memory.mem_ctrl.dram.rank0.actPowerDownEnergy            0                       # Energy for active power-down per rank (pJ) (Joule)
system.memory.mem_ctrl.dram.rank0.prePowerDownEnergy            0                       # Energy for precharge power-down per rank (pJ) (Joule)
system.memory.mem_ctrl.dram.rank0.selfRefreshEnergy            0                       # Energy for self refresh per rank (pJ) (Joule)
system.memory.mem_ctrl.dram.rank0.totalEnergy      1909920                       # Total energy per rank (pJ) (Joule)
system.memory.mem_ctrl.dram.rank0.averagePower   384.004787                       # Core power per rank (mW) (Watt)
system.memory.mem_ctrl.dram.rank0.totalIdleTime            0                       # Total Idle time Per DRAM Rank (Tick)
system.memory.mem_ctrl.dram.rank0.pwrStateTime::IDLE      4973688                       # Time in different power states (Tick)
system.memory.mem_ctrl.dram.rank0.pwrStateTime::REF            0                       # Time in different power states (Tick)
system.memory.mem_ctrl.dram.rank0.pwrStateTime::SREF            0                       # Time in different power states (Tick)
system.memory.mem_ctrl.dram.rank0.pwrStateTime::PRE_PDN            0                       # Time in different power states (Tick)
system.memory.mem_ctrl.dram.rank0.pwrStateTime::ACT            0                       # Time in different power states (Tick)
system.memory.mem_ctrl.dram.rank0.pwrStateTime::ACT_PDN            0                       # Time in different power states (Tick)
system.memory.mem_ctrl.dram.rank1.actEnergy            0                       # Energy for activate commands per rank (pJ) (Joule)
system.memory.mem_ctrl.dram.rank1.preEnergy            0                       # Energy for precharge commands per rank (pJ) (Joule)
system.memory.mem_ctrl.dram.rank1.readEnergy            0                       # Energy for read commands per rank (pJ) (Joule)
system.memory.mem_ctrl.dram.rank1.writeEnergy            0                       # Energy for write commands per rank (pJ) (Joule)
system.memory.mem_ctrl.dram.rank1.refreshEnergy            0                       # Energy for refresh commands per rank (pJ) (Joule)
system.memory.mem_ctrl.dram.rank1.actBackEnergy            0                       # Energy for active background per rank (pJ) (Joule)
system.memory.mem_ctrl.dram.rank1.preBackEnergy      1909920                       # Energy for precharge background per rank (pJ) (Joule)
system.memory.mem_ctrl.dram.rank1.actPowerDownEnergy            0                       # Energy for active power-down per rank (pJ) (Joule)
system.memory.mem_ctrl.dram.rank1.prePowerDownEnergy            0                       # Energy for precharge power-down per rank (pJ) (Joule)
system.memory.mem_ctrl.dram.rank1.selfRefreshEnergy            0                       # Energy for self refresh per rank (pJ) (Joule)
system.memory.mem_ctrl.dram.rank1.totalEnergy      1909920                       # Total energy per rank (pJ) (Joule)
system.memory.mem_ctrl.dram.rank1.averagePower   384.004787                       # Core power per rank (mW) (Watt)
system.memory.mem_ctrl.dram.rank1.totalIdleTime            0                       # Total Idle time Per DRAM Rank (Tick)
system.memory.mem_ctrl.dram.rank1.pwrStateTime::IDLE      4973688                       # Time in different power states (Tick)
system.memory.mem_ctrl.dram.rank1.pwrStateTime::REF            0                       # Time in different power states (Tick)
system.memory.mem_ctrl.dram.rank1.pwrStateTime::SREF            0                       # Time in different power states (Tick)
system.memory.mem_ctrl.dram.rank1.pwrStateTime::PRE_PDN            0                       # Time in different power states (Tick)
system.memory.mem_ctrl.dram.rank1.pwrStateTime::ACT            0                       # Time in different power states (Tick)
system.memory.mem_ctrl.dram.rank1.pwrStateTime::ACT_PDN            0                       # Time in different power states (Tick)
system.memory.mem_ctrl.power_state.pwrStateResidencyTicks::UNDEFINED      4973688                       # Cumulative time (in ticks) in various power states (Tick)
[...]
system.processor.cores.core.commitStats0.numFpInsts          397                       # Number of float instructions (Count)
system.processor.cores.core.commitStats0.numIntInsts        12749                       # Number of integer instructions (Count)
system.processor.cores.core.commitStats0.numLoadInsts         1269                       # Number of load instructions (Count)
system.processor.cores.core.commitStats0.numStoreInsts         1353                       # Number of store instructions (Count)
system.processor.cores.core.commitStats0.numVecInsts            0                       # Number of vector instructions (Count)
system.processor.cores.core.commitStats0.committedInstType::No_OpClass           26      0.20%      0.20% # Class of committed instruction. (Count)
system.processor.cores.core.commitStats0.committedInstType::IntAlu        10089     77.94%     78.14% # Class of committed instruction. (Count)
system.processor.cores.core.commitStats0.committedInstType::IntMult            4      0.03%     78.18% # Class of committed instruction. (Count)
system.processor.cores.core.commitStats0.committedInstType::IntDiv           21      0.16%     78.34% # Class of committed instruction. (Count)
system.processor.cores.core.commitStats0.committedInstType::FloatAdd            2      0.02%     78.35% # Class of committed instruction. (Count)
system.processor.cores.core.commitStats0.committedInstType::FloatCmp            0      0.00%     78.35% # Class of committed instruction. (Count)
system.processor.cores.core.commitStats0.committedInstType::FloatCvt            0      0.00%     78.35% # Class of committed instruction. (Count)
system.processor.cores.core.commitStats0.committedInstType::FloatMult            0      0.00%     78.35% # Class of committed instruction. (Count)
system.processor.cores.core.commitStats0.committedInstType::FloatMultAcc            0      0.00%     78.35% # Class of committed instruction. (Count)
system.processor.cores.core.commitStats0.committedInstType::FloatDiv            0      0.00%     78.35% # Class of committed instruction. (Count)
system.processor.cores.core.commitStats0.committedInstType::FloatMisc            0      0.00%     78.35% # Class of committed instruction. (Count)
system.processor.cores.core.commitStats0.committedInstType::FloatSqrt            0      0.00%     78.35% # Class of committed instruction. (Count)
system.processor.cores.core.commitStats0.committedInstType::SimdAdd            0      0.00%     78.35% # Class of committed instruction. (Count)
system.processor.cores.core.commitStats0.committedInstType::SimdAddAcc            0      0.00%     78.35% # Class of committed instruction. (Count)
system.processor.cores.core.commitStats0.committedInstType::SimdAlu           74      0.57%     78.92% # Class of committed instruction. (Count)
system.processor.cores.core.commitStats0.committedInstType::SimdCmp            0      0.00%     78.92% # Class of committed instruction. (Count)
system.processor.cores.core.commitStats0.committedInstType::SimdCvt           46      0.36%     79.28% # Class of committed instruction. (Count)
system.processor.cores.core.commitStats0.committedInstType::SimdMisc           60      0.46%     79.74% # Class of committed instruction. (Count)
system.processor.cores.core.commitStats0.committedInstType::SimdMult            0      0.00%     79.74% # Class of committed instruction. (Count)
system.processor.cores.core.commitStats0.committedInstType::SimdMultAcc            0      0.00%     79.74% # Class of committed instruction. (Count)
system.processor.cores.core.commitStats0.committedInstType::SimdMatMultAcc            0      0.00%     79.74% # Class of committed instruction. (Count)
system.processor.cores.core.commitStats0.committedInstType::SimdShift            0      0.00%     79.74% # Class of committed instruction. (Count)
system.processor.cores.core.commitStats0.committedInstType::SimdShiftAcc            0      0.00%     79.74% # Class of committed instruction. (Count)
system.processor.cores.core.commitStats0.committedInstType::SimdDiv            0      0.00%     79.74% # Class of committed instruction. (Count)
system.processor.cores.core.commitStats0.committedInstType::SimdSqrt            0      0.00%     79.74% # Class of committed instruction. (Count)
system.processor.cores.core.commitStats0.committedInstType::SimdFloatAdd            0      0.00%     79.74% # Class of committed instruction. (Count)
system.processor.cores.core.commitStats0.committedInstType::SimdFloatAlu            0      0.00%     79.74% # Class of committed instruction. (Count)
system.processor.cores.core.commitStats0.committedInstType::SimdFloatCmp            0      0.00%     79.74% # Class of committed instruction. (Count)
system.processor.cores.core.commitStats0.committedInstType::SimdFloatCvt            0      0.00%     79.74% # Class of committed instruction. (Count)
system.processor.cores.core.commitStats0.committedInstType::SimdFloatDiv            0      0.00%     79.74% # Class of committed instruction. (Count)
system.processor.cores.core.commitStats0.committedInstType::SimdFloatMisc            0      0.00%     79.74% # Class of committed instruction. (Count)
system.processor.cores.core.commitStats0.committedInstType::SimdFloatMult            0      0.00%     79.74% # Class of committed instruction. (Count)
system.processor.cores.core.commitStats0.committedInstType::SimdFloatMultAcc            0      0.00%     79.74% # Class of committed instruction. (Count)
system.processor.cores.core.commitStats0.committedInstType::SimdFloatMatMultAcc            0      0.00%     79.74% # Class of committed instruction. (Count)
system.processor.cores.core.commitStats0.committedInstType::SimdFloatSqrt            0      0.00%     79.74% # Class of committed instruction. (Count)
system.processor.cores.core.commitStats0.committedInstType::SimdReduceAdd            0      0.00%     79.74% # Class of committed instruction. (Count)
system.processor.cores.core.commitStats0.committedInstType::SimdReduceAlu            0      0.00%     79.74% # Class of committed instruction. (Count)
system.processor.cores.core.commitStats0.committedInstType::SimdReduceCmp            0      0.00%     79.74% # Class of committed instruction. (Count)
system.processor.cores.core.commitStats0.committedInstType::SimdFloatReduceAdd            0      0.00%     79.74% # Class of committed instruction. (Count)
system.processor.cores.core.commitStats0.committedInstType::SimdFloatReduceCmp            0      0.00%     79.74% # Class of committed instruction. (Count)
system.processor.cores.core.commitStats0.committedInstType::SimdAes            0      0.00%     79.74% # Class of committed instruction. (Count)
system.processor.cores.core.commitStats0.committedInstType::SimdAesMix            0      0.00%     79.74% # Class of committed instruction. (Count)
system.processor.cores.core.commitStats0.committedInstType::SimdSha1Hash            0      0.00%     79.74% # Class of committed instruction. (Count)
system.processor.cores.core.commitStats0.committedInstType::SimdSha1Hash2            0      0.00%     79.74% # Class of committed instruction. (Count)
system.processor.cores.core.commitStats0.committedInstType::SimdSha256Hash            0      0.00%     79.74% # Class of committed instruction. (Count)
system.processor.cores.core.commitStats0.committedInstType::SimdSha256Hash2            0      0.00%     79.74% # Class of committed instruction. (Count)
system.processor.cores.core.commitStats0.committedInstType::SimdShaSigma2            0      0.00%     79.74% # Class of committed instruction. (Count)
system.processor.cores.core.commitStats0.committedInstType::SimdShaSigma3            0      0.00%     79.74% # Class of committed instruction. (Count)
system.processor.cores.core.commitStats0.committedInstType::SimdPredAlu            0      0.00%     79.74% # Class of committed instruction. (Count)
system.processor.cores.core.commitStats0.committedInstType::Matrix            0      0.00%     79.74% # Class of committed instruction. (Count)
system.processor.cores.core.commitStats0.committedInstType::MatrixMov            0      0.00%     79.74% # Class of committed instruction. (Count)
system.processor.cores.core.commitStats0.committedInstType::MatrixOP            0      0.00%     79.74% # Class of committed instruction. (Count)
system.processor.cores.core.commitStats0.committedInstType::MemRead         1223      9.45%     89.19% # Class of committed instruction. (Count)
system.processor.cores.core.commitStats0.committedInstType::MemWrite         1192      9.21%     98.40% # Class of committed instruction. (Count)
system.processor.cores.core.commitStats0.committedInstType::FloatMemRead           46      0.36%     98.76% # Class of committed instruction. (Count)
system.processor.cores.core.commitStats0.committedInstType::FloatMemWrite          161      1.24%    100.00% # Class of committed instruction. (Count)
system.processor.cores.core.commitStats0.committedInstType::IprAccess            0      0.00%    100.00% # Class of committed instruction. (Count)
system.processor.cores.core.commitStats0.committedInstType::InstPrefetch            0      0.00%    100.00% # Class of committed instruction. (Count)
system.processor.cores.core.commitStats0.committedInstType::VectorUnitStrideLoad            0      0.00%    100.00% # Class of committed instruction. (Count)
system.processor.cores.core.commitStats0.committedInstType::VectorUnitStrideStore            0      0.00%    100.00% # Class of committed instruction. (Count)
system.processor.cores.core.commitStats0.committedInstType::VectorUnitStrideMaskLoad            0      0.00%    100.00% # Class of committed instruction. (Count)
system.processor.cores.core.commitStats0.committedInstType::VectorUnitStrideMaskStore            0      0.00%    100.00% # Class of committed instruction. (Count)
system.processor.cores.core.commitStats0.committedInstType::VectorStridedLoad            0      0.00%    100.00% # Class of committed instruction. (Count)
system.processor.cores.core.commitStats0.committedInstType::VectorStridedStore            0      0.00%    100.00% # Class of committed instruction. (Count)
system.processor.cores.core.commitStats0.committedInstType::VectorIndexedLoad            0      0.00%    100.00% # Class of committed instruction. (Count)
system.processor.cores.core.commitStats0.committedInstType::VectorIndexedStore            0      0.00%    100.00% # Class of committed instruction. (Count)
system.processor.cores.core.commitStats0.committedInstType::VectorUnitStrideFaultOnlyFirstLoad            0      0.00%    100.00% # Class of committed instruction. (Count)
system.processor.cores.core.commitStats0.committedInstType::VectorWholeRegisterLoad            0      0.00%    100.00% # Class of committed instruction. (Count)
system.processor.cores.core.commitStats0.committedInstType::VectorWholeRegisterStore            0      0.00%    100.00% # Class of committed instruction. (Count)
system.processor.cores.core.commitStats0.committedInstType::VectorIntegerArith            0      0.00%    100.00% # Class of committed instruction. (Count)
system.processor.cores.core.commitStats0.committedInstType::VectorFloatArith            0      0.00%    100.00% # Class of committed instruction. (Count)
system.processor.cores.core.commitStats0.committedInstType::VectorFloatConvert            0      0.00%    100.00% # Class of committed instruction. (Count)
system.processor.cores.core.commitStats0.committedInstType::VectorIntegerReduce            0      0.00%    100.00% # Class of committed instruction. (Count)
system.processor.cores.core.commitStats0.committedInstType::VectorFloatReduce            0      0.00%    100.00% # Class of committed instruction. (Count)
system.processor.cores.core.commitStats0.committedInstType::VectorMisc            0      0.00%    100.00% # Class of committed instruction. (Count)
system.processor.cores.core.commitStats0.committedInstType::VectorIntegerExtension            0      0.00%    100.00% # Class of committed instruction. (Count)
system.processor.cores.core.commitStats0.committedInstType::VectorConfig            0      0.00%    100.00% # Class of committed instruction. (Count)
system.processor.cores.core.commitStats0.committedInstType::total        12944                       # Class of committed instruction. (Count)
system.processor.cores.core.commitStats0.committedControl::IsControl         1479                       # Class of control type instructions committed (Count)
system.processor.cores.core.commitStats0.committedControl::IsDirectControl         1297                       # Class of control type instructions committed (Count)
system.processor.cores.core.commitStats0.committedControl::IsIndirectControl          182                       # Class of control type instructions committed (Count)
system.processor.cores.core.commitStats0.committedControl::IsCondControl         1105                       # Class of control type instructions committed (Count)
system.processor.cores.core.commitStats0.committedControl::IsUncondControl          374                       # Class of control type instructions committed (Count)
system.processor.cores.core.commitStats0.committedControl::IsCall          126                       # Class of control type instructions committed (Count)
system.processor.cores.core.commitStats0.committedControl::IsReturn          121                       # Class of control type instructions committed (Count)
system.processor.cores.core.exec_context.thread_0.numMatAluAccesses            0                       # Number of matrix alu accesses (Count)
system.processor.cores.core.exec_context.thread_0.numCallsReturns          247                       # Number of times a function call or return occured (Count)
system.processor.cores.core.exec_context.thread_0.numMatInsts            0                       # Number of matrix instructions (Count)
system.processor.cores.core.exec_context.thread_0.numIdleCycles     0.003003                       # Number of idle cycles (Cycle)
system.processor.cores.core.exec_context.thread_0.numBusyCycles 14936.996997                       # Number of busy cycles (Cycle)
system.processor.cores.core.exec_context.thread_0.notIdleFraction     1.000000                       # Percentage of non-idle cycles (Ratio)
system.processor.cores.core.exec_context.thread_0.idleFraction     0.000000                       # Percentage of idle cycles (Ratio)
system.processor.cores.core.executeStats0.numInsts            0                       # Number of executed instructions (Count)
system.processor.cores.core.executeStats0.numNop            0                       # Number of nop insts executed (Count)
system.processor.cores.core.executeStats0.numBranches            0                       # Number of branches executed (Count)
system.processor.cores.core.executeStats0.numLoadInsts            0                       # Number of load instructions executed (Count)
system.processor.cores.core.executeStats0.numStoreInsts         2622                       # Number of stores executed (Count)
system.processor.cores.core.executeStats0.instRate            0                       # Inst execution rate ((Count/Cycle))
system.processor.cores.core.executeStats0.numFpAluAccesses          397                       # Number of float alu accesses (Count)
system.processor.cores.core.executeStats0.numFpRegReads          539                       # Number of times the floating registers were read (Count)
system.processor.cores.core.executeStats0.numFpRegWrites          190                       # Number of times the floating registers were written (Count)
system.processor.cores.core.executeStats0.numIntAluAccesses        12749                       # Number of integer alu accesses (Count)
system.processor.cores.core.executeStats0.numIntRegReads        16002                       # Number of times the integer registers were read (Count)
system.processor.cores.core.executeStats0.numIntRegWrites         8841                       # Number of times the integer registers were written (Count)
system.processor.cores.core.executeStats0.numMemRefs         2622                       # Number of memory refs (Count)
system.processor.cores.core.executeStats0.numMiscRegReads         5687                       # Number of times the Misc registers were read (Count)
system.processor.cores.core.executeStats0.numVecAluAccesses            0                       # Number of vector alu accesses (Count)
system.processor.cores.core.executeStats0.numDiscardedOps            0                       # Number of ops (including micro ops) which were discarded before commit (Count)
system.processor.cores.core.fetchStats0.numInsts         6552                       # Number of instructions fetched (thread level) (Count)
system.processor.cores.core.fetchStats0.numOps        12944                       # Number of ops (including micro ops) fetched (thread level) (Count)
system.processor.cores.core.fetchStats0.fetchRate     0.438642                       # Number of inst fetches per cycle ((Count/Cycle))
system.processor.cores.core.fetchStats0.numBranches         1479                       # Number of branches fetched (Count)
system.processor.cores.core.fetchStats0.branchRate     0.099016                       # Number of branch fetches per cycle (Ratio)
system.processor.cores.core.fetchStats0.numFetchSuspends            0                       # Number of times Execute suspended instruction fetching (Count)
system.processor.cores.core.interrupts.clk_domain.clock         5328                       # Clock period in ticks (Tick)
system.processor.cores.core.mmu.dtb.rdAccesses         1272                       # TLB accesses on read requests (Count)
system.processor.cores.core.mmu.dtb.wrAccesses         1353                       # TLB accesses on write requests (Count)
system.processor.cores.core.mmu.dtb.rdMisses           11                       # TLB misses on read requests (Count)
system.processor.cores.core.mmu.dtb.wrMisses           11                       # TLB misses on write requests (Count)
system.processor.cores.core.mmu.dtb.walker.power_state.pwrStateResidencyTicks::UNDEFINED      4973688                       # Cumulative time (in ticks) in various power states (Tick)
system.processor.cores.core.mmu.itb.rdAccesses            0                       # TLB accesses on read requests (Count)
system.processor.cores.core.mmu.itb.wrAccesses         8546                       # TLB accesses on write requests (Count)
system.processor.cores.core.mmu.itb.rdMisses            0                       # TLB misses on read requests (Count)
system.processor.cores.core.mmu.itb.wrMisses           39                       # TLB misses on write requests (Count)
system.processor.cores.core.mmu.itb.walker.power_state.pwrStateResidencyTicks::UNDEFINED      4973688                       # Cumulative time (in ticks) in various power states (Tick)
system.processor.cores.core.power_state.pwrStateResidencyTicks::ON      4973688                       # Cumulative time (in ticks) in various power states (Tick)
system.processor.cores.core.thread_0.numInsts            0                       # Number of Instructions committed (Count)
system.processor.cores.core.thread_0.numOps            0                       # Number of Ops committed (Count)
system.processor.cores.core.thread_0.numMemRefs            0                       # Number of Memory References (Count)
system.processor.cores.core.workload.numSyscalls           11                       # Number of system calls (Count)
system.workload.inst.arm                            0                       # number of arm instructions executed (Count)
system.workload.inst.quiesce                        0                       # number of quiesce instructions executed (Count)

---------- End Simulation Statistics   ----------
