
---------- Begin Simulation Statistics ----------
simSeconds                                   0.000047                       # Number of seconds simulated (Second)
simTicks                                     47088000                       # Number of ticks simulated (Tick)
finalTick                                    47088000                       # Number of ticks from beginning of simulation (restored from checkpoints and never reset) (Tick)
simFreq                                  1000000000000                       # The number of ticks per simulated second ((Tick/Second))
hostSeconds                                      0.04                       # Real time elapsed on the host (Second)
hostTickRate                               1319425492                       # The number of ticks simulated per host second (ticks/s) ((Tick/Second))
hostMemory                                     199656                       # Number of bytes of host memory used (Byte)
simInsts                                         6539                       # Number of instructions simulated (Count)
simOps                                          12930                       # Number of ops (including micro ops) simulated (Count)
hostInstRate                                   182698                       # Simulator instruction rate (inst/s) ((Count/Second))
hostOpRate                                     361196                       # Simulator op (including micro ops) rate (op/s) ((Count/Second))
system.cache_hierarchy.dptw_caches.blockedCycles::no_mshrs            0                       # number of cycles access was blocked (Cycle)
system.cache_hierarchy.dptw_caches.blockedCycles::no_targets            0                       # number of cycles access was blocked (Cycle)
system.cache_hierarchy.dptw_caches.blockedCauses::no_mshrs            0                       # number of times access was blocked (Count)
system.cache_hierarchy.dptw_caches.blockedCauses::no_targets            0                       # number of times access was blocked (Count)
system.cache_hierarchy.dptw_caches.avgBlocked::no_mshrs          nan                       # average number of cycles each access was blocked ((Cycle/Count))
system.cache_hierarchy.dptw_caches.avgBlocked::no_targets          nan                       # average number of cycles each access was blocked ((Cycle/Count))
system.cache_hierarchy.dptw_caches.replacements            0                       # number of replacements (Count)
system.cache_hierarchy.dptw_caches.power_state.pwrStateResidencyTicks::UNDEFINED     47088000                       # Cumulative time (in ticks) in various power states (Tick)
system.cache_hierarchy.dptw_caches.tags.tagsInUse            0                       # Average ticks per tags in use ((Tick/Count))
system.cache_hierarchy.dptw_caches.tags.totalRefs            0                       # Total number of references to valid blocks. (Count)
system.cache_hierarchy.dptw_caches.tags.sampledRefs            0                       # Sample count of references to valid blocks. (Count)
system.cache_hierarchy.dptw_caches.tags.avgRefs          nan                       # Average number of references to valid blocks. ((Count/Count))
system.cache_hierarchy.dptw_caches.tags.warmupTick            0                       # The tick when the warmup percentage was hit. (Tick)
system.cache_hierarchy.dptw_caches.tags.tagAccesses            0                       # Number of tag accesses (Count)
system.cache_hierarchy.dptw_caches.tags.dataAccesses            0                       # Number of data accesses (Count)
system.cache_hierarchy.dptw_caches.tags.power_state.pwrStateResidencyTicks::UNDEFINED     47088000                       # Cumulative time (in ticks) in various power states (Tick)
system.cache_hierarchy.iptw_caches.blockedCycles::no_mshrs            0                       # number of cycles access was blocked (Cycle)
system.cache_hierarchy.iptw_caches.blockedCycles::no_targets            0                       # number of cycles access was blocked (Cycle)
system.cache_hierarchy.iptw_caches.blockedCauses::no_mshrs            0                       # number of times access was blocked (Count)
system.cache_hierarchy.iptw_caches.blockedCauses::no_targets            0                       # number of times access was blocked (Count)
system.cache_hierarchy.iptw_caches.avgBlocked::no_mshrs          nan                       # average number of cycles each access was blocked ((Cycle/Count))
system.cache_hierarchy.iptw_caches.avgBlocked::no_targets          nan                       # average number of cycles each access was blocked ((Cycle/Count))
system.cache_hierarchy.iptw_caches.replacements            0                       # number of replacements (Count)
system.cache_hierarchy.iptw_caches.power_state.pwrStateResidencyTicks::UNDEFINED     47088000                       # Cumulative time (in ticks) in various power states (Tick)
system.cache_hierarchy.iptw_caches.tags.tagsInUse            0                       # Average ticks per tags in use ((Tick/Count))
system.cache_hierarchy.iptw_caches.tags.totalRefs            0                       # Total number of references to valid blocks. (Count)
system.cache_hierarchy.iptw_caches.tags.sampledRefs            0                       # Sample count of references to valid blocks. (Count)
system.cache_hierarchy.iptw_caches.tags.avgRefs          nan                       # Average number of references to valid blocks. ((Count/Count))
system.cache_hierarchy.iptw_caches.tags.warmupTick            0                       # The tick when the warmup percentage was hit. (Tick)
system.cache_hierarchy.iptw_caches.tags.tagAccesses            0                       # Number of tag accesses (Count)
system.cache_hierarchy.iptw_caches.tags.dataAccesses            0                       # Number of data accesses (Count)
system.cache_hierarchy.iptw_caches.tags.power_state.pwrStateResidencyTicks::UNDEFINED     47088000                       # Cumulative time (in ticks) in various power states (Tick)
system.cache_hierarchy.l1dcaches.demandHits::processor.cores.core.data         2468                       # number of demand (read+write) hits (Count)
system.cache_hierarchy.l1dcaches.demandHits::total         2468                       # number of demand (read+write) hits (Count)
system.cache_hierarchy.l1dcaches.overallHits::processor.cores.core.data         2468                       # number of overall hits (Count)
system.cache_hierarchy.l1dcaches.overallHits::total         2468                       # number of overall hits (Count)
system.cache_hierarchy.l1dcaches.demandMisses::processor.cores.core.data          154                       # number of demand (read+write) misses (Count)
system.cache_hierarchy.l1dcaches.demandMisses::total          154                       # number of demand (read+write) misses (Count)
system.cache_hierarchy.l1dcaches.overallMisses::processor.cores.core.data          154                       # number of overall misses (Count)
system.cache_hierarchy.l1dcaches.overallMisses::total          154                       # number of overall misses (Count)
system.cache_hierarchy.l1dcaches.demandMissLatency::processor.cores.core.data     10336000                       # number of demand (read+write) miss ticks (Tick)
system.cache_hierarchy.l1dcaches.demandMissLatency::total     10336000                       # number of demand (read+write) miss ticks (Tick)
system.cache_hierarchy.l1dcaches.overallMissLatency::processor.cores.core.data     10336000                       # number of overall miss ticks (Tick)
system.cache_hierarchy.l1dcaches.overallMissLatency::total     10336000                       # number of overall miss ticks (Tick)
system.cache_hierarchy.l1dcaches.demandAccesses::processor.cores.core.data         2622                       # number of demand (read+write) accesses (Count)
system.cache_hierarchy.l1dcaches.demandAccesses::total         2622                       # number of demand (read+write) accesses (Count)
system.cache_hierarchy.l1dcaches.overallAccesses::processor.cores.core.data         2622                       # number of overall (read+write) accesses (Count)
system.cache_hierarchy.l1dcaches.overallAccesses::total         2622                       # number of overall (read+write) accesses (Count)
system.cache_hierarchy.l1dcaches.demandMissRate::processor.cores.core.data     0.058734                       # miss rate for demand accesses (Ratio)
system.cache_hierarchy.l1dcaches.demandMissRate::total     0.058734                       # miss rate for demand accesses (Ratio)
system.cache_hierarchy.l1dcaches.overallMissRate::processor.cores.core.data     0.058734                       # miss rate for overall accesses (Ratio)
system.cache_hierarchy.l1dcaches.overallMissRate::total     0.058734                       # miss rate for overall accesses (Ratio)
system.cache_hierarchy.l1dcaches.demandAvgMissLatency::processor.cores.core.data 67116.883117                       # average overall miss latency in ticks ((Tick/Count))
system.cache_hierarchy.l1dcaches.demandAvgMissLatency::total 67116.883117                       # average overall miss latency in ticks ((Tick/Count))
system.cache_hierarchy.l1dcaches.overallAvgMissLatency::processor.cores.core.data 67116.883117                       # average overall miss latency ((Tick/Count))
system.cache_hierarchy.l1dcaches.overallAvgMissLatency::total 67116.883117                       # average overall miss latency ((Tick/Count))
system.cache_hierarchy.l1dcaches.blockedCycles::no_mshrs            0                       # number of cycles access was blocked (Cycle)
system.cache_hierarchy.l1dcaches.blockedCycles::no_targets            0                       # number of cycles access was blocked (Cycle)
system.cache_hierarchy.l1dcaches.blockedCauses::no_mshrs            0                       # number of times access was blocked (Count)
system.cache_hierarchy.l1dcaches.blockedCauses::no_targets            0                       # number of times access was blocked (Count)
system.cache_hierarchy.l1dcaches.avgBlocked::no_mshrs          nan                       # average number of cycles each access was blocked ((Cycle/Count))
system.cache_hierarchy.l1dcaches.avgBlocked::no_targets          nan                       # average number of cycles each access was blocked ((Cycle/Count))
system.cache_hierarchy.l1dcaches.demandMshrHits::processor.cores.core.data            2                       # number of demand (read+write) MSHR hits (Count)
system.cache_hierarchy.l1dcaches.demandMshrHits::total            2                       # number of demand (read+write) MSHR hits (Count)
system.cache_hierarchy.l1dcaches.overallMshrHits::processor.cores.core.data            2                       # number of overall MSHR hits (Count)
system.cache_hierarchy.l1dcaches.overallMshrHits::total            2                       # number of overall MSHR hits (Count)
system.cache_hierarchy.l1dcaches.demandMshrMisses::processor.cores.core.data          152                       # number of demand (read+write) MSHR misses (Count)
system.cache_hierarchy.l1dcaches.demandMshrMisses::total          152                       # number of demand (read+write) MSHR misses (Count)
system.cache_hierarchy.l1dcaches.overallMshrMisses::cache_hierarchy.l1dcaches.prefetcher           35                       # number of overall MSHR misses (Count)
system.cache_hierarchy.l1dcaches.overallMshrMisses::processor.cores.core.data          152                       # number of overall MSHR misses (Count)
system.cache_hierarchy.l1dcaches.overallMshrMisses::total          187                       # number of overall MSHR misses (Count)
system.cache_hierarchy.l1dcaches.demandMshrMissLatency::processor.cores.core.data     10035000                       # number of demand (read+write) MSHR miss ticks (Tick)
system.cache_hierarchy.l1dcaches.demandMshrMissLatency::total     10035000                       # number of demand (read+write) MSHR miss ticks (Tick)
system.cache_hierarchy.l1dcaches.overallMshrMissLatency::cache_hierarchy.l1dcaches.prefetcher      2356960                       # number of overall MSHR miss ticks (Tick)
system.cache_hierarchy.l1dcaches.overallMshrMissLatency::processor.cores.core.data     10035000                       # number of overall MSHR miss ticks (Tick)
system.cache_hierarchy.l1dcaches.overallMshrMissLatency::total     12391960                       # number of overall MSHR miss ticks (Tick)
system.cache_hierarchy.l1dcaches.demandMshrMissRate::processor.cores.core.data     0.057971                       # mshr miss ratio for demand accesses (Ratio)
system.cache_hierarchy.l1dcaches.demandMshrMissRate::total     0.057971                       # mshr miss ratio for demand accesses (Ratio)
system.cache_hierarchy.l1dcaches.overallMshrMissRate::cache_hierarchy.l1dcaches.prefetcher          inf                       # mshr miss ratio for overall accesses (Ratio)
system.cache_hierarchy.l1dcaches.overallMshrMissRate::processor.cores.core.data     0.057971                       # mshr miss ratio for overall accesses (Ratio)
system.cache_hierarchy.l1dcaches.overallMshrMissRate::total     0.071320                       # mshr miss ratio for overall accesses (Ratio)
system.cache_hierarchy.l1dcaches.demandAvgMshrMissLatency::processor.cores.core.data 66019.736842                       # average overall mshr miss latency ((Tick/Count))
system.cache_hierarchy.l1dcaches.demandAvgMshrMissLatency::total 66019.736842                       # average overall mshr miss latency ((Tick/Count))
system.cache_hierarchy.l1dcaches.overallAvgMshrMissLatency::cache_hierarchy.l1dcaches.prefetcher 67341.714286                       # average overall mshr miss latency ((Tick/Count))
system.cache_hierarchy.l1dcaches.overallAvgMshrMissLatency::processor.cores.core.data 66019.736842                       # average overall mshr miss latency ((Tick/Count))
system.cache_hierarchy.l1dcaches.overallAvgMshrMissLatency::total 66267.165775                       # average overall mshr miss latency ((Tick/Count))
system.cache_hierarchy.l1dcaches.replacements            0                       # number of replacements (Count)
system.cache_hierarchy.l1dcaches.HardPFReq.mshrMisses::cache_hierarchy.l1dcaches.prefetcher           35                       # number of HardPFReq MSHR misses (Count)
system.cache_hierarchy.l1dcaches.HardPFReq.mshrMisses::total           35                       # number of HardPFReq MSHR misses (Count)
system.cache_hierarchy.l1dcaches.HardPFReq.mshrMissLatency::cache_hierarchy.l1dcaches.prefetcher      2356960                       # number of HardPFReq MSHR miss ticks (Tick)
system.cache_hierarchy.l1dcaches.HardPFReq.mshrMissLatency::total      2356960                       # number of HardPFReq MSHR miss ticks (Tick)
system.cache_hierarchy.l1dcaches.HardPFReq.mshrMissRate::cache_hierarchy.l1dcaches.prefetcher          inf                       # mshr miss rate for HardPFReq accesses (Ratio)
system.cache_hierarchy.l1dcaches.HardPFReq.mshrMissRate::total          inf                       # mshr miss rate for HardPFReq accesses (Ratio)
system.cache_hierarchy.l1dcaches.HardPFReq.avgMshrMissLatency::cache_hierarchy.l1dcaches.prefetcher 67341.714286                       # average HardPFReq mshr miss latency ((Tick/Count))
system.cache_hierarchy.l1dcaches.HardPFReq.avgMshrMissLatency::total 67341.714286                       # average HardPFReq mshr miss latency ((Tick/Count))
system.cache_hierarchy.l1dcaches.ReadReq.hits::processor.cores.core.data         1193                       # number of ReadReq hits (Count)
system.cache_hierarchy.l1dcaches.ReadReq.hits::total         1193                       # number of ReadReq hits (Count)
system.cache_hierarchy.l1dcaches.ReadReq.misses::processor.cores.core.data           79                       # number of ReadReq misses (Count)
system.cache_hierarchy.l1dcaches.ReadReq.misses::total           79                       # number of ReadReq misses (Count)
system.cache_hierarchy.l1dcaches.ReadReq.missLatency::processor.cores.core.data      5763000                       # number of ReadReq miss ticks (Tick)
system.cache_hierarchy.l1dcaches.ReadReq.missLatency::total      5763000                       # number of ReadReq miss ticks (Tick)
system.cache_hierarchy.l1dcaches.ReadReq.accesses::processor.cores.core.data         1272                       # number of ReadReq accesses(hits+misses) (Count)
system.cache_hierarchy.l1dcaches.ReadReq.accesses::total         1272                       # number of ReadReq accesses(hits+misses) (Count)
system.cache_hierarchy.l1dcaches.ReadReq.missRate::processor.cores.core.data     0.062107                       # miss rate for ReadReq accesses (Ratio)
system.cache_hierarchy.l1dcaches.ReadReq.missRate::total     0.062107                       # miss rate for ReadReq accesses (Ratio)
system.cache_hierarchy.l1dcaches.ReadReq.avgMissLatency::processor.cores.core.data 72949.367089                       # average ReadReq miss latency ((Tick/Count))
system.cache_hierarchy.l1dcaches.ReadReq.avgMissLatency::total 72949.367089                       # average ReadReq miss latency ((Tick/Count))
system.cache_hierarchy.l1dcaches.ReadReq.mshrMisses::processor.cores.core.data           79                       # number of ReadReq MSHR misses (Count)
system.cache_hierarchy.l1dcaches.ReadReq.mshrMisses::total           79                       # number of ReadReq MSHR misses (Count)
system.cache_hierarchy.l1dcaches.ReadReq.mshrMissLatency::processor.cores.core.data      5684000                       # number of ReadReq MSHR miss ticks (Tick)
system.cache_hierarchy.l1dcaches.ReadReq.mshrMissLatency::total      5684000                       # number of ReadReq MSHR miss ticks (Tick)
system.cache_hierarchy.l1dcaches.ReadReq.mshrMissRate::processor.cores.core.data     0.062107                       # mshr miss rate for ReadReq accesses (Ratio)
system.cache_hierarchy.l1dcaches.ReadReq.mshrMissRate::total     0.062107                       # mshr miss rate for ReadReq accesses (Ratio)
system.cache_hierarchy.l1dcaches.ReadReq.avgMshrMissLatency::processor.cores.core.data 71949.367089                       # average ReadReq mshr miss latency ((Tick/Count))
system.cache_hierarchy.l1dcaches.ReadReq.avgMshrMissLatency::total 71949.367089                       # average ReadReq mshr miss latency ((Tick/Count))
system.cache_hierarchy.l1dcaches.WriteReq.hits::processor.cores.core.data         1275                       # number of WriteReq hits (Count)
system.cache_hierarchy.l1dcaches.WriteReq.hits::total         1275                       # number of WriteReq hits (Count)
system.cache_hierarchy.l1dcaches.WriteReq.misses::processor.cores.core.data           75                       # number of WriteReq misses (Count)
system.cache_hierarchy.l1dcaches.WriteReq.misses::total           75                       # number of WriteReq misses (Count)
system.cache_hierarchy.l1dcaches.WriteReq.missLatency::processor.cores.core.data      4573000                       # number of WriteReq miss ticks (Tick)
system.cache_hierarchy.l1dcaches.WriteReq.missLatency::total      4573000                       # number of WriteReq miss ticks (Tick)
system.cache_hierarchy.l1dcaches.WriteReq.accesses::processor.cores.core.data         1350                       # number of WriteReq accesses(hits+misses) (Count)
system.cache_hierarchy.l1dcaches.WriteReq.accesses::total         1350                       # number of WriteReq accesses(hits+misses) (Count)
system.cache_hierarchy.l1dcaches.WriteReq.missRate::processor.cores.core.data     0.055556                       # miss rate for WriteReq accesses (Ratio)
system.cache_hierarchy.l1dcaches.WriteReq.missRate::total     0.055556                       # miss rate for WriteReq accesses (Ratio)
system.cache_hierarchy.l1dcaches.WriteReq.avgMissLatency::processor.cores.core.data 60973.333333                       # average WriteReq miss latency ((Tick/Count))
system.cache_hierarchy.l1dcaches.WriteReq.avgMissLatency::total 60973.333333                       # average WriteReq miss latency ((Tick/Count))
system.cache_hierarchy.l1dcaches.WriteReq.mshrHits::processor.cores.core.data            2                       # number of WriteReq MSHR hits (Count)
system.cache_hierarchy.l1dcaches.WriteReq.mshrHits::total            2                       # number of WriteReq MSHR hits (Count)
system.cache_hierarchy.l1dcaches.WriteReq.mshrMisses::processor.cores.core.data           73                       # number of WriteReq MSHR misses (Count)
system.cache_hierarchy.l1dcaches.WriteReq.mshrMisses::total           73                       # number of WriteReq MSHR misses (Count)
system.cache_hierarchy.l1dcaches.WriteReq.mshrMissLatency::processor.cores.core.data      4351000                       # number of WriteReq MSHR miss ticks (Tick)
system.cache_hierarchy.l1dcaches.WriteReq.mshrMissLatency::total      4351000                       # number of WriteReq MSHR miss ticks (Tick)
system.cache_hierarchy.l1dcaches.WriteReq.mshrMissRate::processor.cores.core.data     0.054074                       # mshr miss rate for WriteReq accesses (Ratio)
system.cache_hierarchy.l1dcaches.WriteReq.mshrMissRate::total     0.054074                       # mshr miss rate for WriteReq accesses (Ratio)
system.cache_hierarchy.l1dcaches.WriteReq.avgMshrMissLatency::processor.cores.core.data 59602.739726                       # average WriteReq mshr miss latency ((Tick/Count))
system.cache_hierarchy.l1dcaches.WriteReq.avgMshrMissLatency::total 59602.739726                       # average WriteReq mshr miss latency ((Tick/Count))
system.cache_hierarchy.l1dcaches.power_state.pwrStateResidencyTicks::UNDEFINED     47088000                       # Cumulative time (in ticks) in various power states (Tick)
system.cache_hierarchy.l1dcaches.prefetcher.demandMshrMisses          152                       # demands not covered by prefetchs (Count)
system.cache_hierarchy.l1dcaches.prefetcher.pfIssued           46                       # number of hwpf issued (Count)
system.cache_hierarchy.l1dcaches.prefetcher.pfUseful           30                       # number of useful prefetch (Count)
system.cache_hierarchy.l1dcaches.prefetcher.pfUsefulButMiss            0                       # number of hit on prefetch but cache block is not in an usable state (Count)
system.cache_hierarchy.l1dcaches.prefetcher.accuracy     0.652174                       # accuracy of the prefetcher (Count)
system.cache_hierarchy.l1dcaches.prefetcher.coverage     0.164835                       # coverage brought by this prefetcher (Count)
system.cache_hierarchy.l1dcaches.prefetcher.pfHitInCache            5                       # number of prefetches hitting in cache (Count)
system.cache_hierarchy.l1dcaches.prefetcher.pfHitInMSHR            6                       # number of prefetches hitting in a MSHR (Count)
system.cache_hierarchy.l1dcaches.prefetcher.pfHitInWB            0                       # number of prefetches hit in the Write Buffer (Count)
system.cache_hierarchy.l1dcaches.prefetcher.pfLate           11                       # number of late prefetches (hitting in cache, MSHR or WB) (Count)
system.cache_hierarchy.l1dcaches.prefetcher.pfIdentified           46                       # number of prefetch candidates identified (Count)
system.cache_hierarchy.l1dcaches.prefetcher.pfBufferHit            0                       # number of redundant prefetches already in prefetch queue (Count)
system.cache_hierarchy.l1dcaches.prefetcher.pfInCache            0                       # number of redundant prefetches already in cache/mshr dropped (Count)
system.cache_hierarchy.l1dcaches.prefetcher.pfRemovedDemand            0                       # number of prefetches dropped due to a demand for the same address (Count)
system.cache_hierarchy.l1dcaches.prefetcher.pfRemovedFull            0                       # number of prefetches dropped due to prefetch queue size (Count)
system.cache_hierarchy.l1dcaches.prefetcher.pfSpanPage            6                       # number of prefetches that crossed the page (Count)
system.cache_hierarchy.l1dcaches.prefetcher.pfUsefulSpanPage            0                       # number of prefetches that is useful and crossed the page (Count)
system.cache_hierarchy.l1dcaches.prefetcher.power_state.pwrStateResidencyTicks::UNDEFINED     47088000                       # Cumulative time (in ticks) in various power states (Tick)
system.cache_hierarchy.l1dcaches.tags.tagsInUse   115.621710                       # Average ticks per tags in use ((Tick/Count))
system.cache_hierarchy.l1dcaches.tags.totalRefs         2655                       # Total number of references to valid blocks. (Count)
system.cache_hierarchy.l1dcaches.tags.sampledRefs          187                       # Sample count of references to valid blocks. (Count)
system.cache_hierarchy.l1dcaches.tags.avgRefs    14.197861                       # Average number of references to valid blocks. ((Count/Count))
system.cache_hierarchy.l1dcaches.tags.warmupTick       161000                       # The tick when the warmup percentage was hit. (Tick)
system.cache_hierarchy.l1dcaches.tags.occupancies::cache_hierarchy.l1dcaches.prefetcher    23.371114                       # Average occupied blocks per tick, per requestor ((Count/Tick))
system.cache_hierarchy.l1dcaches.tags.occupancies::processor.cores.core.data    92.250596                       # Average occupied blocks per tick, per requestor ((Count/Tick))
system.cache_hierarchy.l1dcaches.tags.avgOccs::cache_hierarchy.l1dcaches.prefetcher     0.091293                       # Average percentage of cache occupancy ((Ratio/Tick))
system.cache_hierarchy.l1dcaches.tags.avgOccs::processor.cores.core.data     0.360354                       # Average percentage of cache occupancy ((Ratio/Tick))
system.cache_hierarchy.l1dcaches.tags.avgOccs::total     0.451647                       # Average percentage of cache occupancy ((Ratio/Tick))
system.cache_hierarchy.l1dcaches.tags.occupanciesTaskId::1022           35                       # Occupied blocks per task id (Count)
system.cache_hierarchy.l1dcaches.tags.occupanciesTaskId::1024          152                       # Occupied blocks per task id (Count)
system.cache_hierarchy.l1dcaches.tags.ageTaskId_1022::1           35                       # Occupied blocks per task id, per block age (Count)
system.cache_hierarchy.l1dcaches.tags.ageTaskId_1024::0           15                       # Occupied blocks per task id, per block age (Count)
system.cache_hierarchy.l1dcaches.tags.ageTaskId_1024::1          137                       # Occupied blocks per task id, per block age (Count)
system.cache_hierarchy.l1dcaches.tags.ratioOccsTaskId::1022     0.136719                       # Ratio of occupied blocks and all blocks, per task id (Ratio)
system.cache_hierarchy.l1dcaches.tags.ratioOccsTaskId::1024     0.593750                       # Ratio of occupied blocks and all blocks, per task id (Ratio)
system.cache_hierarchy.l1dcaches.tags.tagAccesses        21163                       # Number of tag accesses (Count)
system.cache_hierarchy.l1dcaches.tags.dataAccesses        21163                       # Number of data accesses (Count)
system.cache_hierarchy.l1dcaches.tags.power_state.pwrStateResidencyTicks::UNDEFINED     47088000                       # Cumulative time (in ticks) in various power states (Tick)
system.cache_hierarchy.l1icaches.demandHits::processor.cores.core.inst         8191                       # number of demand (read+write) hits (Count)
system.cache_hierarchy.l1icaches.demandHits::total         8191                       # number of demand (read+write) hits (Count)
system.cache_hierarchy.l1icaches.overallHits::processor.cores.core.inst         8191                       # number of overall hits (Count)
system.cache_hierarchy.l1icaches.overallHits::total         8191                       # number of overall hits (Count)
system.cache_hierarchy.l1icaches.demandMisses::processor.cores.core.inst          355                       # number of demand (read+write) misses (Count)
system.cache_hierarchy.l1icaches.demandMisses::total          355                       # number of demand (read+write) misses (Count)
system.cache_hierarchy.l1icaches.overallMisses::processor.cores.core.inst          355                       # number of overall misses (Count)
system.cache_hierarchy.l1icaches.overallMisses::total          355                       # number of overall misses (Count)
system.cache_hierarchy.l1icaches.demandMissLatency::processor.cores.core.inst     25770000                       # number of demand (read+write) miss ticks (Tick)
system.cache_hierarchy.l1icaches.demandMissLatency::total     25770000                       # number of demand (read+write) miss ticks (Tick)
system.cache_hierarchy.l1icaches.overallMissLatency::processor.cores.core.inst     25770000                       # number of overall miss ticks (Tick)
system.cache_hierarchy.l1icaches.overallMissLatency::total     25770000                       # number of overall miss ticks (Tick)
system.cache_hierarchy.l1icaches.demandAccesses::processor.cores.core.inst         8546                       # number of demand (read+write) accesses (Count)
system.cache_hierarchy.l1icaches.demandAccesses::total         8546                       # number of demand (read+write) accesses (Count)
system.cache_hierarchy.l1icaches.overallAccesses::processor.cores.core.inst         8546                       # number of overall (read+write) accesses (Count)
system.cache_hierarchy.l1icaches.overallAccesses::total         8546                       # number of overall (read+write) accesses (Count)
system.cache_hierarchy.l1icaches.demandMissRate::processor.cores.core.inst     0.041540                       # miss rate for demand accesses (Ratio)
system.cache_hierarchy.l1icaches.demandMissRate::total     0.041540                       # miss rate for demand accesses (Ratio)
system.cache_hierarchy.l1icaches.overallMissRate::processor.cores.core.inst     0.041540                       # miss rate for overall accesses (Ratio)
system.cache_hierarchy.l1icaches.overallMissRate::total     0.041540                       # miss rate for overall accesses (Ratio)
system.cache_hierarchy.l1icaches.demandAvgMissLatency::processor.cores.core.inst 72591.549296                       # average overall miss latency in ticks ((Tick/Count))
system.cache_hierarchy.l1icaches.demandAvgMissLatency::total 72591.549296                       # average overall miss latency in ticks ((Tick/Count))
system.cache_hierarchy.l1icaches.overallAvgMissLatency::processor.cores.core.inst 72591.549296                       # average overall miss latency ((Tick/Count))
system.cache_hierarchy.l1icaches.overallAvgMissLatency::total 72591.549296                       # average overall miss latency ((Tick/Count))
system.cache_hierarchy.l1icaches.blockedCycles::no_mshrs            0                       # number of cycles access was blocked (Cycle)
system.cache_hierarchy.l1icaches.blockedCycles::no_targets            0                       # number of cycles access was blocked (Cycle)
system.cache_hierarchy.l1icaches.blockedCauses::no_mshrs            0                       # number of times access was blocked (Count)
system.cache_hierarchy.l1icaches.blockedCauses::no_targets            0                       # number of times access was blocked (Count)
system.cache_hierarchy.l1icaches.avgBlocked::no_mshrs          nan                       # average number of cycles each access was blocked ((Cycle/Count))
system.cache_hierarchy.l1icaches.avgBlocked::no_targets          nan                       # average number of cycles each access was blocked ((Cycle/Count))
system.cache_hierarchy.l1icaches.writebacks::writebacks           99                       # number of writebacks (Count)
system.cache_hierarchy.l1icaches.writebacks::total           99                       # number of writebacks (Count)
system.cache_hierarchy.l1icaches.demandMshrMisses::processor.cores.core.inst          355                       # number of demand (read+write) MSHR misses (Count)
system.cache_hierarchy.l1icaches.demandMshrMisses::total          355                       # number of demand (read+write) MSHR misses (Count)
system.cache_hierarchy.l1icaches.overallMshrMisses::processor.cores.core.inst          355                       # number of overall MSHR misses (Count)
system.cache_hierarchy.l1icaches.overallMshrMisses::total          355                       # number of overall MSHR misses (Count)
system.cache_hierarchy.l1icaches.demandMshrMissLatency::processor.cores.core.inst     25415000                       # number of demand (read+write) MSHR miss ticks (Tick)
system.cache_hierarchy.l1icaches.demandMshrMissLatency::total     25415000                       # number of demand (read+write) MSHR miss ticks (Tick)
system.cache_hierarchy.l1icaches.overallMshrMissLatency::processor.cores.core.inst     25415000                       # number of overall MSHR miss ticks (Tick)
system.cache_hierarchy.l1icaches.overallMshrMissLatency::total     25415000                       # number of overall MSHR miss ticks (Tick)
system.cache_hierarchy.l1icaches.demandMshrMissRate::processor.cores.core.inst     0.041540                       # mshr miss ratio for demand accesses (Ratio)
system.cache_hierarchy.l1icaches.demandMshrMissRate::total     0.041540                       # mshr miss ratio for demand accesses (Ratio)
system.cache_hierarchy.l1icaches.overallMshrMissRate::processor.cores.core.inst     0.041540                       # mshr miss ratio for overall accesses (Ratio)
system.cache_hierarchy.l1icaches.overallMshrMissRate::total     0.041540                       # mshr miss ratio for overall accesses (Ratio)
system.cache_hierarchy.l1icaches.demandAvgMshrMissLatency::processor.cores.core.inst 71591.549296                       # average overall mshr miss latency ((Tick/Count))
system.cache_hierarchy.l1icaches.demandAvgMshrMissLatency::total 71591.549296                       # average overall mshr miss latency ((Tick/Count))
system.cache_hierarchy.l1icaches.overallAvgMshrMissLatency::processor.cores.core.inst 71591.549296                       # average overall mshr miss latency ((Tick/Count))
system.cache_hierarchy.l1icaches.overallAvgMshrMissLatency::total 71591.549296                       # average overall mshr miss latency ((Tick/Count))
system.cache_hierarchy.l1icaches.replacements           99                       # number of replacements (Count)
system.cache_hierarchy.l1icaches.ReadReq.hits::processor.cores.core.inst         8191                       # number of ReadReq hits (Count)
system.cache_hierarchy.l1icaches.ReadReq.hits::total         8191                       # number of ReadReq hits (Count)
system.cache_hierarchy.l1icaches.ReadReq.misses::processor.cores.core.inst          355                       # number of ReadReq misses (Count)
system.cache_hierarchy.l1icaches.ReadReq.misses::total          355                       # number of ReadReq misses (Count)
system.cache_hierarchy.l1icaches.ReadReq.missLatency::processor.cores.core.inst     25770000                       # number of ReadReq miss ticks (Tick)
system.cache_hierarchy.l1icaches.ReadReq.missLatency::total     25770000                       # number of ReadReq miss ticks (Tick)
system.cache_hierarchy.l1icaches.ReadReq.accesses::processor.cores.core.inst         8546                       # number of ReadReq accesses(hits+misses) (Count)
system.cache_hierarchy.l1icaches.ReadReq.accesses::total         8546                       # number of ReadReq accesses(hits+misses) (Count)
system.cache_hierarchy.l1icaches.ReadReq.missRate::processor.cores.core.inst     0.041540                       # miss rate for ReadReq accesses (Ratio)
system.cache_hierarchy.l1icaches.ReadReq.missRate::total     0.041540                       # miss rate for ReadReq accesses (Ratio)
system.cache_hierarchy.l1icaches.ReadReq.avgMissLatency::processor.cores.core.inst 72591.549296                       # average ReadReq miss latency ((Tick/Count))
system.cache_hierarchy.l1icaches.ReadReq.avgMissLatency::total 72591.549296                       # average ReadReq miss latency ((Tick/Count))
system.cache_hierarchy.l1icaches.ReadReq.mshrMisses::processor.cores.core.inst          355                       # number of ReadReq MSHR misses (Count)
system.cache_hierarchy.l1icaches.ReadReq.mshrMisses::total          355                       # number of ReadReq MSHR misses (Count)
system.cache_hierarchy.l1icaches.ReadReq.mshrMissLatency::processor.cores.core.inst     25415000                       # number of ReadReq MSHR miss ticks (Tick)
system.cache_hierarchy.l1icaches.ReadReq.mshrMissLatency::total     25415000                       # number of ReadReq MSHR miss ticks (Tick)
system.cache_hierarchy.l1icaches.ReadReq.mshrMissRate::processor.cores.core.inst     0.041540                       # mshr miss rate for ReadReq accesses (Ratio)
system.cache_hierarchy.l1icaches.ReadReq.mshrMissRate::total     0.041540                       # mshr miss rate for ReadReq accesses (Ratio)
system.cache_hierarchy.l1icaches.ReadReq.avgMshrMissLatency::processor.cores.core.inst 71591.549296                       # average ReadReq mshr miss latency ((Tick/Count))
system.cache_hierarchy.l1icaches.ReadReq.avgMshrMissLatency::total 71591.549296                       # average ReadReq mshr miss latency ((Tick/Count))
system.cache_hierarchy.l1icaches.power_state.pwrStateResidencyTicks::UNDEFINED     47088000                       # Cumulative time (in ticks) in various power states (Tick)
system.cache_hierarchy.l1icaches.prefetcher.demandMshrMisses          355                       # demands not covered by prefetchs (Count)
system.cache_hierarchy.l1icaches.prefetcher.pfIssued            0                       # number of hwpf issued (Count)
system.cache_hierarchy.l1icaches.prefetcher.pfUseful            0                       # number of useful prefetch (Count)
system.cache_hierarchy.l1icaches.prefetcher.pfUsefulButMiss            0                       # number of hit on prefetch but cache block is not in an usable state (Count)
system.cache_hierarchy.l1icaches.prefetcher.accuracy          nan                       # accuracy of the prefetcher (Count)
system.cache_hierarchy.l1icaches.prefetcher.coverage            0                       # coverage brought by this prefetcher (Count)
system.cache_hierarchy.l1icaches.prefetcher.pfHitInCache            0                       # number of prefetches hitting in cache (Count)
system.cache_hierarchy.l1icaches.prefetcher.pfHitInMSHR            0                       # number of prefetches hitting in a MSHR (Count)
system.cache_hierarchy.l1icaches.prefetcher.pfHitInWB            0                       # number of prefetches hit in the Write Buffer (Count)
system.cache_hierarchy.l1icaches.prefetcher.pfLate            0                       # number of late prefetches (hitting in cache, MSHR or WB) (Count)
system.cache_hierarchy.l1icaches.prefetcher.pfIdentified            0                       # number of prefetch candidates identified (Count)
system.cache_hierarchy.l1icaches.prefetcher.pfBufferHit            0                       # number of redundant prefetches already in prefetch queue (Count)
system.cache_hierarchy.l1icaches.prefetcher.pfInCache            0                       # number of redundant prefetches already in cache/mshr dropped (Count)
system.cache_hierarchy.l1icaches.prefetcher.pfRemovedDemand            0                       # number of prefetches dropped due to a demand for the same address (Count)
system.cache_hierarchy.l1icaches.prefetcher.pfRemovedFull            0                       # number of prefetches dropped due to prefetch queue size (Count)
system.cache_hierarchy.l1icaches.prefetcher.pfSpanPage            0                       # number of prefetches that crossed the page (Count)
system.cache_hierarchy.l1icaches.prefetcher.pfUsefulSpanPage            0                       # number of prefetches that is useful and crossed the page (Count)
system.cache_hierarchy.l1icaches.prefetcher.power_state.pwrStateResidencyTicks::UNDEFINED     47088000                       # Cumulative time (in ticks) in various power states (Tick)
system.cache_hierarchy.l1icaches.tags.tagsInUse   152.956806                       # Average ticks per tags in use ((Tick/Count))
system.cache_hierarchy.l1icaches.tags.totalRefs         8546                       # Total number of references to valid blocks. (Count)
system.cache_hierarchy.l1icaches.tags.sampledRefs          355                       # Sample count of references to valid blocks. (Count)
system.cache_hierarchy.l1icaches.tags.avgRefs    24.073239                       # Average number of references to valid blocks. ((Count/Count))
system.cache_hierarchy.l1icaches.tags.warmupTick        79000                       # The tick when the warmup percentage was hit. (Tick)
system.cache_hierarchy.l1icaches.tags.occupancies::processor.cores.core.inst   152.956806                       # Average occupied blocks per tick, per requestor ((Count/Tick))
system.cache_hierarchy.l1icaches.tags.avgOccs::processor.cores.core.inst     0.597488                       # Average percentage of cache occupancy ((Ratio/Tick))
system.cache_hierarchy.l1icaches.tags.avgOccs::total     0.597488                       # Average percentage of cache occupancy ((Ratio/Tick))
system.cache_hierarchy.l1icaches.tags.occupanciesTaskId::1024          256                       # Occupied blocks per task id (Count)
system.cache_hierarchy.l1icaches.tags.ageTaskId_1024::0           85                       # Occupied blocks per task id, per block age (Count)
system.cache_hierarchy.l1icaches.tags.ageTaskId_1024::1          171                       # Occupied blocks per task id, per block age (Count)
system.cache_hierarchy.l1icaches.tags.ratioOccsTaskId::1024            1                       # Ratio of occupied blocks and all blocks, per task id (Ratio)
system.cache_hierarchy.l1icaches.tags.tagAccesses        68723                       # Number of tag accesses (Count)
system.cache_hierarchy.l1icaches.tags.dataAccesses        68723                       # Number of data accesses (Count)
system.cache_hierarchy.l1icaches.tags.power_state.pwrStateResidencyTicks::UNDEFINED     47088000                       # Cumulative time (in ticks) in various power states (Tick)
system.cache_hierarchy.l2buses.transDist::ReadResp          469                       # Transaction distribution (Count)
system.cache_hierarchy.l2buses.transDist::WritebackClean           99                       # Transaction distribution (Count)
system.cache_hierarchy.l2buses.transDist::HardPFReq           53                       # Transaction distribution (Count)
system.cache_hierarchy.l2buses.transDist::ReadExReq           73                       # Transaction distribution (Count)
system.cache_hierarchy.l2buses.transDist::ReadExResp           73                       # Transaction distribution (Count)
system.cache_hierarchy.l2buses.transDist::ReadSharedReq          469                       # Transaction distribution (Count)
system.cache_hierarchy.l2buses.pktCount_system.cache_hierarchy.l1icaches.mem_side_port::system.cache_hierarchy.l2caches.cpu_side_port          809                       # Packet count per connected requestor and responder (Count)
system.cache_hierarchy.l2buses.pktCount_system.cache_hierarchy.l1dcaches.mem_side_port::system.cache_hierarchy.l2caches.cpu_side_port          374                       # Packet count per connected requestor and responder (Count)
system.cache_hierarchy.l2buses.pktCount::total         1183                       # Packet count per connected requestor and responder (Count)
system.cache_hierarchy.l2buses.pktSize_system.cache_hierarchy.l1icaches.mem_side_port::system.cache_hierarchy.l2caches.cpu_side_port        29056                       # Cumulative packet size per connected requestor and responder (Byte)
system.cache_hierarchy.l2buses.pktSize_system.cache_hierarchy.l1dcaches.mem_side_port::system.cache_hierarchy.l2caches.cpu_side_port        11968                       # Cumulative packet size per connected requestor and responder (Byte)
system.cache_hierarchy.l2buses.pktSize::total        41024                       # Cumulative packet size per connected requestor and responder (Byte)
system.cache_hierarchy.l2buses.snoops              53                       # Total snoops (Count)
system.cache_hierarchy.l2buses.snoopTraffic            0                       # Total snoop traffic (Byte)
system.cache_hierarchy.l2buses.snoopFanout::samples          595                       # Request fanout histogram (Count)
system.cache_hierarchy.l2buses.snoopFanout::mean     0.001681                       # Request fanout histogram (Count)
system.cache_hierarchy.l2buses.snoopFanout::stdev     0.040996                       # Request fanout histogram (Count)
system.cache_hierarchy.l2buses.snoopFanout::underflows            0      0.00%      0.00% # Request fanout histogram (Count)
system.cache_hierarchy.l2buses.snoopFanout::0          594     99.83%     99.83% # Request fanout histogram (Count)
system.cache_hierarchy.l2buses.snoopFanout::1            1      0.17%    100.00% # Request fanout histogram (Count)
system.cache_hierarchy.l2buses.snoopFanout::2            0      0.00%    100.00% # Request fanout histogram (Count)
system.cache_hierarchy.l2buses.snoopFanout::3            0      0.00%    100.00% # Request fanout histogram (Count)
system.cache_hierarchy.l2buses.snoopFanout::4            0      0.00%    100.00% # Request fanout histogram (Count)
system.cache_hierarchy.l2buses.snoopFanout::overflows            0      0.00%    100.00% # Request fanout histogram (Count)
system.cache_hierarchy.l2buses.snoopFanout::min_value            0                       # Request fanout histogram (Count)
system.cache_hierarchy.l2buses.snoopFanout::max_value            1                       # Request fanout histogram (Count)
system.cache_hierarchy.l2buses.snoopFanout::total          595                       # Request fanout histogram (Count)
system.cache_hierarchy.l2buses.power_state.pwrStateResidencyTicks::UNDEFINED     47088000                       # Cumulative time (in ticks) in various power states (Tick)
system.cache_hierarchy.l2buses.reqLayer0.occupancy       840994                       # Layer occupancy (ticks) (Tick)
system.cache_hierarchy.l2buses.reqLayer0.utilization          0.0                       # Layer utilization (Ratio)
system.cache_hierarchy.l2buses.respLayer0.occupancy      1065000                       # Layer occupancy (ticks) (Tick)
system.cache_hierarchy.l2buses.respLayer0.utilization          0.0                       # Layer utilization (Ratio)
system.cache_hierarchy.l2buses.respLayer1.occupancy       561000                       # Layer occupancy (ticks) (Tick)
system.cache_hierarchy.l2buses.respLayer1.utilization          0.0                       # Layer utilization (Ratio)
system.cache_hierarchy.l2buses.snoop_filter.totRequests          641                       # Total number of requests made to the snoop filter. (Count)
system.cache_hierarchy.l2buses.snoop_filter.hitSingleRequests          100                       # Number of requests hitting in the snoop filter with a single holder of the requested data. (Count)
system.cache_hierarchy.l2buses.snoop_filter.hitMultiRequests            0                       # Number of requests hitting in the snoop filter with multiple (>1) holders of the requested data. (Count)
system.cache_hierarchy.l2buses.snoop_filter.totSnoops            0                       # Total number of snoops made to the snoop filter. (Count)
system.cache_hierarchy.l2buses.snoop_filter.hitSingleSnoops            0                       # Number of snoops hitting in the snoop filter with a single holder of the requested data. (Count)
system.cache_hierarchy.l2buses.snoop_filter.hitMultiSnoops            0                       # Number of snoops hitting in the snoop filter with multiple (>1) holders of the requested data. (Count)
system.cache_hierarchy.l2caches.demandHits::cache_hierarchy.l1dcaches.prefetcher            6                       # number of demand (read+write) hits (Count)
system.cache_hierarchy.l2caches.demandHits::processor.cores.core.inst            2                       # number of demand (read+write) hits (Count)
system.cache_hierarchy.l2caches.demandHits::processor.cores.core.data           13                       # number of demand (read+write) hits (Count)
system.cache_hierarchy.l2caches.demandHits::total           21                       # number of demand (read+write) hits (Count)
system.cache_hierarchy.l2caches.overallHits::cache_hierarchy.l1dcaches.prefetcher            6                       # number of overall hits (Count)
system.cache_hierarchy.l2caches.overallHits::processor.cores.core.inst            2                       # number of overall hits (Count)
system.cache_hierarchy.l2caches.overallHits::processor.cores.core.data           13                       # number of overall hits (Count)
system.cache_hierarchy.l2caches.overallHits::total           21                       # number of overall hits (Count)
system.cache_hierarchy.l2caches.demandMisses::cache_hierarchy.l1dcaches.prefetcher           29                       # number of demand (read+write) misses (Count)
system.cache_hierarchy.l2caches.demandMisses::processor.cores.core.inst          353                       # number of demand (read+write) misses (Count)
system.cache_hierarchy.l2caches.demandMisses::processor.cores.core.data          139                       # number of demand (read+write) misses (Count)
system.cache_hierarchy.l2caches.demandMisses::total          521                       # number of demand (read+write) misses (Count)
system.cache_hierarchy.l2caches.overallMisses::cache_hierarchy.l1dcaches.prefetcher           29                       # number of overall misses (Count)
system.cache_hierarchy.l2caches.overallMisses::processor.cores.core.inst          353                       # number of overall misses (Count)
system.cache_hierarchy.l2caches.overallMisses::processor.cores.core.data          139                       # number of overall misses (Count)
system.cache_hierarchy.l2caches.overallMisses::total          521                       # number of overall misses (Count)
system.cache_hierarchy.l2caches.demandMissLatency::cache_hierarchy.l1dcaches.prefetcher      2208994                       # number of demand (read+write) miss ticks (Tick)
system.cache_hierarchy.l2caches.demandMissLatency::processor.cores.core.inst     24679000                       # number of demand (read+write) miss ticks (Tick)
system.cache_hierarchy.l2caches.demandMissLatency::processor.cores.core.data      9583000                       # number of demand (read+write) miss ticks (Tick)
system.cache_hierarchy.l2caches.demandMissLatency::total     36470994                       # number of demand (read+write) miss ticks (Tick)
system.cache_hierarchy.l2caches.overallMissLatency::cache_hierarchy.l1dcaches.prefetcher      2208994                       # number of overall miss ticks (Tick)
system.cache_hierarchy.l2caches.overallMissLatency::processor.cores.core.inst     24679000                       # number of overall miss ticks (Tick)
system.cache_hierarchy.l2caches.overallMissLatency::processor.cores.core.data      9583000                       # number of overall miss ticks (Tick)
system.cache_hierarchy.l2caches.overallMissLatency::total     36470994                       # number of overall miss ticks (Tick)
system.cache_hierarchy.l2caches.demandAccesses::cache_hierarchy.l1dcaches.prefetcher           35                       # number of demand (read+write) accesses (Count)
system.cache_hierarchy.l2caches.demandAccesses::processor.cores.core.inst          355                       # number of demand (read+write) accesses (Count)
system.cache_hierarchy.l2caches.demandAccesses::processor.cores.core.data          152                       # number of demand (read+write) accesses (Count)
system.cache_hierarchy.l2caches.demandAccesses::total          542                       # number of demand (read+write) accesses (Count)
system.cache_hierarchy.l2caches.overallAccesses::cache_hierarchy.l1dcaches.prefetcher           35                       # number of overall (read+write) accesses (Count)
system.cache_hierarchy.l2caches.overallAccesses::processor.cores.core.inst          355                       # number of overall (read+write) accesses (Count)
system.cache_hierarchy.l2caches.overallAccesses::processor.cores.core.data          152                       # number of overall (read+write) accesses (Count)
system.cache_hierarchy.l2caches.overallAccesses::total          542                       # number of overall (read+write) accesses (Count)
system.cache_hierarchy.l2caches.demandMissRate::cache_hierarchy.l1dcaches.prefetcher     0.828571                       # miss rate for demand accesses (Ratio)
system.cache_hierarchy.l2caches.demandMissRate::processor.cores.core.inst     0.994366                       # miss rate for demand accesses (Ratio)
system.cache_hierarchy.l2caches.demandMissRate::processor.cores.core.data     0.914474                       # miss rate for demand accesses (Ratio)
system.cache_hierarchy.l2caches.demandMissRate::total     0.961255                       # miss rate for demand accesses (Ratio)
system.cache_hierarchy.l2caches.overallMissRate::cache_hierarchy.l1dcaches.prefetcher     0.828571                       # miss rate for overall accesses (Ratio)
system.cache_hierarchy.l2caches.overallMissRate::processor.cores.core.inst     0.994366                       # miss rate for overall accesses (Ratio)
system.cache_hierarchy.l2caches.overallMissRate::processor.cores.core.data     0.914474                       # miss rate for overall accesses (Ratio)
system.cache_hierarchy.l2caches.overallMissRate::total     0.961255                       # miss rate for overall accesses (Ratio)
system.cache_hierarchy.l2caches.demandAvgMissLatency::cache_hierarchy.l1dcaches.prefetcher 76172.206897                       # average overall miss latency in ticks ((Tick/Count))
system.cache_hierarchy.l2caches.demandAvgMissLatency::processor.cores.core.inst 69912.181303                       # average overall miss latency in ticks ((Tick/Count))
system.cache_hierarchy.l2caches.demandAvgMissLatency::processor.cores.core.data 68942.446043                       # average overall miss latency in ticks ((Tick/Count))
system.cache_hierarchy.l2caches.demandAvgMissLatency::total 70001.907869                       # average overall miss latency in ticks ((Tick/Count))
system.cache_hierarchy.l2caches.overallAvgMissLatency::cache_hierarchy.l1dcaches.prefetcher 76172.206897                       # average overall miss latency ((Tick/Count))
system.cache_hierarchy.l2caches.overallAvgMissLatency::processor.cores.core.inst 69912.181303                       # average overall miss latency ((Tick/Count))
system.cache_hierarchy.l2caches.overallAvgMissLatency::processor.cores.core.data 68942.446043                       # average overall miss latency ((Tick/Count))
system.cache_hierarchy.l2caches.overallAvgMissLatency::total 70001.907869                       # average overall miss latency ((Tick/Count))
system.cache_hierarchy.l2caches.blockedCycles::no_mshrs            0                       # number of cycles access was blocked (Cycle)
system.cache_hierarchy.l2caches.blockedCycles::no_targets            0                       # number of cycles access was blocked (Cycle)
system.cache_hierarchy.l2caches.blockedCauses::no_mshrs            0                       # number of times access was blocked (Count)
system.cache_hierarchy.l2caches.blockedCauses::no_targets            0                       # number of times access was blocked (Count)
system.cache_hierarchy.l2caches.avgBlocked::no_mshrs          nan                       # average number of cycles each access was blocked ((Cycle/Count))
system.cache_hierarchy.l2caches.avgBlocked::no_targets          nan                       # average number of cycles each access was blocked ((Cycle/Count))
system.cache_hierarchy.l2caches.demandMshrHits::cache_hierarchy.l1dcaches.prefetcher           10                       # number of demand (read+write) MSHR hits (Count)
system.cache_hierarchy.l2caches.demandMshrHits::total           10                       # number of demand (read+write) MSHR hits (Count)
system.cache_hierarchy.l2caches.overallMshrHits::cache_hierarchy.l1dcaches.prefetcher           10                       # number of overall MSHR hits (Count)
system.cache_hierarchy.l2caches.overallMshrHits::total           10                       # number of overall MSHR hits (Count)
system.cache_hierarchy.l2caches.demandMshrMisses::cache_hierarchy.l1dcaches.prefetcher           19                       # number of demand (read+write) MSHR misses (Count)
system.cache_hierarchy.l2caches.demandMshrMisses::processor.cores.core.inst          353                       # number of demand (read+write) MSHR misses (Count)
system.cache_hierarchy.l2caches.demandMshrMisses::processor.cores.core.data          139                       # number of demand (read+write) MSHR misses (Count)
system.cache_hierarchy.l2caches.demandMshrMisses::total          511                       # number of demand (read+write) MSHR misses (Count)
system.cache_hierarchy.l2caches.overallMshrMisses::cache_hierarchy.l1dcaches.prefetcher           19                       # number of overall MSHR misses (Count)
system.cache_hierarchy.l2caches.overallMshrMisses::cache_hierarchy.l2caches.prefetcher           31                       # number of overall MSHR misses (Count)
system.cache_hierarchy.l2caches.overallMshrMisses::processor.cores.core.inst          353                       # number of overall MSHR misses (Count)
system.cache_hierarchy.l2caches.overallMshrMisses::processor.cores.core.data          139                       # number of overall MSHR misses (Count)
system.cache_hierarchy.l2caches.overallMshrMisses::total          542                       # number of overall MSHR misses (Count)
system.cache_hierarchy.l2caches.demandMshrMissLatency::cache_hierarchy.l1dcaches.prefetcher      1682000                       # number of demand (read+write) MSHR miss ticks (Tick)
system.cache_hierarchy.l2caches.demandMshrMissLatency::processor.cores.core.inst     24326000                       # number of demand (read+write) MSHR miss ticks (Tick)
system.cache_hierarchy.l2caches.demandMshrMissLatency::processor.cores.core.data      9444000                       # number of demand (read+write) MSHR miss ticks (Tick)
system.cache_hierarchy.l2caches.demandMshrMissLatency::total     35452000                       # number of demand (read+write) MSHR miss ticks (Tick)
system.cache_hierarchy.l2caches.overallMshrMissLatency::cache_hierarchy.l1dcaches.prefetcher      1682000                       # number of overall MSHR miss ticks (Tick)
system.cache_hierarchy.l2caches.overallMshrMissLatency::cache_hierarchy.l2caches.prefetcher      2013959                       # number of overall MSHR miss ticks (Tick)
system.cache_hierarchy.l2caches.overallMshrMissLatency::processor.cores.core.inst     24326000                       # number of overall MSHR miss ticks (Tick)
system.cache_hierarchy.l2caches.overallMshrMissLatency::processor.cores.core.data      9444000                       # number of overall MSHR miss ticks (Tick)
system.cache_hierarchy.l2caches.overallMshrMissLatency::total     37465959                       # number of overall MSHR miss ticks (Tick)
system.cache_hierarchy.l2caches.demandMshrMissRate::cache_hierarchy.l1dcaches.prefetcher     0.542857                       # mshr miss ratio for demand accesses (Ratio)
system.cache_hierarchy.l2caches.demandMshrMissRate::processor.cores.core.inst     0.994366                       # mshr miss ratio for demand accesses (Ratio)
system.cache_hierarchy.l2caches.demandMshrMissRate::processor.cores.core.data     0.914474                       # mshr miss ratio for demand accesses (Ratio)
system.cache_hierarchy.l2caches.demandMshrMissRate::total     0.942804                       # mshr miss ratio for demand accesses (Ratio)
system.cache_hierarchy.l2caches.overallMshrMissRate::cache_hierarchy.l1dcaches.prefetcher     0.542857                       # mshr miss ratio for overall accesses (Ratio)
system.cache_hierarchy.l2caches.overallMshrMissRate::cache_hierarchy.l2caches.prefetcher          inf                       # mshr miss ratio for overall accesses (Ratio)
system.cache_hierarchy.l2caches.overallMshrMissRate::processor.cores.core.inst     0.994366                       # mshr miss ratio for overall accesses (Ratio)
system.cache_hierarchy.l2caches.overallMshrMissRate::processor.cores.core.data     0.914474                       # mshr miss ratio for overall accesses (Ratio)
system.cache_hierarchy.l2caches.overallMshrMissRate::total            1                       # mshr miss ratio for overall accesses (Ratio)
system.cache_hierarchy.l2caches.demandAvgMshrMissLatency::cache_hierarchy.l1dcaches.prefetcher 88526.315789                       # average overall mshr miss latency ((Tick/Count))
system.cache_hierarchy.l2caches.demandAvgMshrMissLatency::processor.cores.core.inst 68912.181303                       # average overall mshr miss latency ((Tick/Count))
system.cache_hierarchy.l2caches.demandAvgMshrMissLatency::processor.cores.core.data 67942.446043                       # average overall mshr miss latency ((Tick/Count))
system.cache_hierarchy.l2caches.demandAvgMshrMissLatency::total 69377.690802                       # average overall mshr miss latency ((Tick/Count))
system.cache_hierarchy.l2caches.overallAvgMshrMissLatency::cache_hierarchy.l1dcaches.prefetcher 88526.315789                       # average overall mshr miss latency ((Tick/Count))
system.cache_hierarchy.l2caches.overallAvgMshrMissLatency::cache_hierarchy.l2caches.prefetcher 64966.419355                       # average overall mshr miss latency ((Tick/Count))
system.cache_hierarchy.l2caches.overallAvgMshrMissLatency::processor.cores.core.inst 68912.181303                       # average overall mshr miss latency ((Tick/Count))
system.cache_hierarchy.l2caches.overallAvgMshrMissLatency::processor.cores.core.data 67942.446043                       # average overall mshr miss latency ((Tick/Count))
system.cache_hierarchy.l2caches.overallAvgMshrMissLatency::total 69125.385609                       # average overall mshr miss latency ((Tick/Count))
system.cache_hierarchy.l2caches.replacements            0                       # number of replacements (Count)
system.cache_hierarchy.l2caches.HardPFReq.mshrMisses::cache_hierarchy.l2caches.prefetcher           31                       # number of HardPFReq MSHR misses (Count)
system.cache_hierarchy.l2caches.HardPFReq.mshrMisses::total           31                       # number of HardPFReq MSHR misses (Count)
system.cache_hierarchy.l2caches.HardPFReq.mshrMissLatency::cache_hierarchy.l2caches.prefetcher      2013959                       # number of HardPFReq MSHR miss ticks (Tick)
system.cache_hierarchy.l2caches.HardPFReq.mshrMissLatency::total      2013959                       # number of HardPFReq MSHR miss ticks (Tick)
system.cache_hierarchy.l2caches.HardPFReq.mshrMissRate::cache_hierarchy.l2caches.prefetcher          inf                       # mshr miss rate for HardPFReq accesses (Ratio)
system.cache_hierarchy.l2caches.HardPFReq.mshrMissRate::total          inf                       # mshr miss rate for HardPFReq accesses (Ratio)
system.cache_hierarchy.l2caches.HardPFReq.avgMshrMissLatency::cache_hierarchy.l2caches.prefetcher 64966.419355                       # average HardPFReq mshr miss latency ((Tick/Count))
system.cache_hierarchy.l2caches.HardPFReq.avgMshrMissLatency::total 64966.419355                       # average HardPFReq mshr miss latency ((Tick/Count))
system.cache_hierarchy.l2caches.ReadExReq.hits::processor.cores.core.data           13                       # number of ReadExReq hits (Count)
system.cache_hierarchy.l2caches.ReadExReq.hits::total           13                       # number of ReadExReq hits (Count)
system.cache_hierarchy.l2caches.ReadExReq.misses::processor.cores.core.data           60                       # number of ReadExReq misses (Count)
system.cache_hierarchy.l2caches.ReadExReq.misses::total           60                       # number of ReadExReq misses (Count)
system.cache_hierarchy.l2caches.ReadExReq.missLatency::processor.cores.core.data      4060000                       # number of ReadExReq miss ticks (Tick)
system.cache_hierarchy.l2caches.ReadExReq.missLatency::total      4060000                       # number of ReadExReq miss ticks (Tick)
system.cache_hierarchy.l2caches.ReadExReq.accesses::processor.cores.core.data           73                       # number of ReadExReq accesses(hits+misses) (Count)
system.cache_hierarchy.l2caches.ReadExReq.accesses::total           73                       # number of ReadExReq accesses(hits+misses) (Count)
system.cache_hierarchy.l2caches.ReadExReq.missRate::processor.cores.core.data     0.821918                       # miss rate for ReadExReq accesses (Ratio)
system.cache_hierarchy.l2caches.ReadExReq.missRate::total     0.821918                       # miss rate for ReadExReq accesses (Ratio)
system.cache_hierarchy.l2caches.ReadExReq.avgMissLatency::processor.cores.core.data 67666.666667                       # average ReadExReq miss latency ((Tick/Count))
system.cache_hierarchy.l2caches.ReadExReq.avgMissLatency::total 67666.666667                       # average ReadExReq miss latency ((Tick/Count))
system.cache_hierarchy.l2caches.ReadExReq.mshrMisses::processor.cores.core.data           60                       # number of ReadExReq MSHR misses (Count)
system.cache_hierarchy.l2caches.ReadExReq.mshrMisses::total           60                       # number of ReadExReq MSHR misses (Count)
system.cache_hierarchy.l2caches.ReadExReq.mshrMissLatency::processor.cores.core.data      4000000                       # number of ReadExReq MSHR miss ticks (Tick)
system.cache_hierarchy.l2caches.ReadExReq.mshrMissLatency::total      4000000                       # number of ReadExReq MSHR miss ticks (Tick)
system.cache_hierarchy.l2caches.ReadExReq.mshrMissRate::processor.cores.core.data     0.821918                       # mshr miss rate for ReadExReq accesses (Ratio)
system.cache_hierarchy.l2caches.ReadExReq.mshrMissRate::total     0.821918                       # mshr miss rate for ReadExReq accesses (Ratio)
system.cache_hierarchy.l2caches.ReadExReq.avgMshrMissLatency::processor.cores.core.data 66666.666667                       # average ReadExReq mshr miss latency ((Tick/Count))
system.cache_hierarchy.l2caches.ReadExReq.avgMshrMissLatency::total 66666.666667                       # average ReadExReq mshr miss latency ((Tick/Count))
system.cache_hierarchy.l2caches.ReadSharedReq.hits::cache_hierarchy.l1dcaches.prefetcher            6                       # number of ReadSharedReq hits (Count)
system.cache_hierarchy.l2caches.ReadSharedReq.hits::processor.cores.core.inst            2                       # number of ReadSharedReq hits (Count)
system.cache_hierarchy.l2caches.ReadSharedReq.hits::total            8                       # number of ReadSharedReq hits (Count)
system.cache_hierarchy.l2caches.ReadSharedReq.misses::cache_hierarchy.l1dcaches.prefetcher           29                       # number of ReadSharedReq misses (Count)
system.cache_hierarchy.l2caches.ReadSharedReq.misses::processor.cores.core.inst          353                       # number of ReadSharedReq misses (Count)
system.cache_hierarchy.l2caches.ReadSharedReq.misses::processor.cores.core.data           79                       # number of ReadSharedReq misses (Count)
system.cache_hierarchy.l2caches.ReadSharedReq.misses::total          461                       # number of ReadSharedReq misses (Count)
system.cache_hierarchy.l2caches.ReadSharedReq.missLatency::cache_hierarchy.l1dcaches.prefetcher      2208994                       # number of ReadSharedReq miss ticks (Tick)
system.cache_hierarchy.l2caches.ReadSharedReq.missLatency::processor.cores.core.inst     24679000                       # number of ReadSharedReq miss ticks (Tick)
system.cache_hierarchy.l2caches.ReadSharedReq.missLatency::processor.cores.core.data      5523000                       # number of ReadSharedReq miss ticks (Tick)
system.cache_hierarchy.l2caches.ReadSharedReq.missLatency::total     32410994                       # number of ReadSharedReq miss ticks (Tick)
system.cache_hierarchy.l2caches.ReadSharedReq.accesses::cache_hierarchy.l1dcaches.prefetcher           35                       # number of ReadSharedReq accesses(hits+misses) (Count)
system.cache_hierarchy.l2caches.ReadSharedReq.accesses::processor.cores.core.inst          355                       # number of ReadSharedReq accesses(hits+misses) (Count)
system.cache_hierarchy.l2caches.ReadSharedReq.accesses::processor.cores.core.data           79                       # number of ReadSharedReq accesses(hits+misses) (Count)
system.cache_hierarchy.l2caches.ReadSharedReq.accesses::total          469                       # number of ReadSharedReq accesses(hits+misses) (Count)
system.cache_hierarchy.l2caches.ReadSharedReq.missRate::cache_hierarchy.l1dcaches.prefetcher     0.828571                       # miss rate for ReadSharedReq accesses (Ratio)
system.cache_hierarchy.l2caches.ReadSharedReq.missRate::processor.cores.core.inst     0.994366                       # miss rate for ReadSharedReq accesses (Ratio)
system.cache_hierarchy.l2caches.ReadSharedReq.missRate::processor.cores.core.data            1                       # miss rate for ReadSharedReq accesses (Ratio)
system.cache_hierarchy.l2caches.ReadSharedReq.missRate::total     0.982942                       # miss rate for ReadSharedReq accesses (Ratio)
system.cache_hierarchy.l2caches.ReadSharedReq.avgMissLatency::cache_hierarchy.l1dcaches.prefetcher 76172.206897                       # average ReadSharedReq miss latency ((Tick/Count))
system.cache_hierarchy.l2caches.ReadSharedReq.avgMissLatency::processor.cores.core.inst 69912.181303                       # average ReadSharedReq miss latency ((Tick/Count))
system.cache_hierarchy.l2caches.ReadSharedReq.avgMissLatency::processor.cores.core.data 69911.392405                       # average ReadSharedReq miss latency ((Tick/Count))
system.cache_hierarchy.l2caches.ReadSharedReq.avgMissLatency::total 70305.843818                       # average ReadSharedReq miss latency ((Tick/Count))
system.cache_hierarchy.l2caches.ReadSharedReq.mshrHits::cache_hierarchy.l1dcaches.prefetcher           10                       # number of ReadSharedReq MSHR hits (Count)
system.cache_hierarchy.l2caches.ReadSharedReq.mshrHits::total           10                       # number of ReadSharedReq MSHR hits (Count)
system.cache_hierarchy.l2caches.ReadSharedReq.mshrMisses::cache_hierarchy.l1dcaches.prefetcher           19                       # number of ReadSharedReq MSHR misses (Count)
system.cache_hierarchy.l2caches.ReadSharedReq.mshrMisses::processor.cores.core.inst          353                       # number of ReadSharedReq MSHR misses (Count)
system.cache_hierarchy.l2caches.ReadSharedReq.mshrMisses::processor.cores.core.data           79                       # number of ReadSharedReq MSHR misses (Count)
system.cache_hierarchy.l2caches.ReadSharedReq.mshrMisses::total          451                       # number of ReadSharedReq MSHR misses (Count)
system.cache_hierarchy.l2caches.ReadSharedReq.mshrMissLatency::cache_hierarchy.l1dcaches.prefetcher      1682000                       # number of ReadSharedReq MSHR miss ticks (Tick)
system.cache_hierarchy.l2caches.ReadSharedReq.mshrMissLatency::processor.cores.core.inst     24326000                       # number of ReadSharedReq MSHR miss ticks (Tick)
system.cache_hierarchy.l2caches.ReadSharedReq.mshrMissLatency::processor.cores.core.data      5444000                       # number of ReadSharedReq MSHR miss ticks (Tick)
system.cache_hierarchy.l2caches.ReadSharedReq.mshrMissLatency::total     31452000                       # number of ReadSharedReq MSHR miss ticks (Tick)
system.cache_hierarchy.l2caches.ReadSharedReq.mshrMissRate::cache_hierarchy.l1dcaches.prefetcher     0.542857                       # mshr miss rate for ReadSharedReq accesses (Ratio)
system.cache_hierarchy.l2caches.ReadSharedReq.mshrMissRate::processor.cores.core.inst     0.994366                       # mshr miss rate for ReadSharedReq accesses (Ratio)
system.cache_hierarchy.l2caches.ReadSharedReq.mshrMissRate::processor.cores.core.data            1                       # mshr miss rate for ReadSharedReq accesses (Ratio)
system.cache_hierarchy.l2caches.ReadSharedReq.mshrMissRate::total     0.961620                       # mshr miss rate for ReadSharedReq accesses (Ratio)
system.cache_hierarchy.l2caches.ReadSharedReq.avgMshrMissLatency::cache_hierarchy.l1dcaches.prefetcher 88526.315789                       # average ReadSharedReq mshr miss latency ((Tick/Count))
system.cache_hierarchy.l2caches.ReadSharedReq.avgMshrMissLatency::processor.cores.core.inst 68912.181303                       # average ReadSharedReq mshr miss latency ((Tick/Count))
system.cache_hierarchy.l2caches.ReadSharedReq.avgMshrMissLatency::processor.cores.core.data 68911.392405                       # average ReadSharedReq mshr miss latency ((Tick/Count))
system.cache_hierarchy.l2caches.ReadSharedReq.avgMshrMissLatency::total 69738.359202                       # average ReadSharedReq mshr miss latency ((Tick/Count))
system.cache_hierarchy.l2caches.WritebackClean.hits::writebacks           99                       # number of WritebackClean hits (Count)
system.cache_hierarchy.l2caches.WritebackClean.hits::total           99                       # number of WritebackClean hits (Count)
system.cache_hierarchy.l2caches.WritebackClean.accesses::writebacks           99                       # number of WritebackClean accesses(hits+misses) (Count)
system.cache_hierarchy.l2caches.WritebackClean.accesses::total           99                       # number of WritebackClean accesses(hits+misses) (Count)
system.cache_hierarchy.l2caches.power_state.pwrStateResidencyTicks::UNDEFINED     47088000                       # Cumulative time (in ticks) in various power states (Tick)
system.cache_hierarchy.l2caches.prefetcher.demandMshrMisses          511                       # demands not covered by prefetchs (Count)
system.cache_hierarchy.l2caches.prefetcher.pfIssued           44                       # number of hwpf issued (Count)
system.cache_hierarchy.l2caches.prefetcher.pfUseful           19                       # number of useful prefetch (Count)
system.cache_hierarchy.l2caches.prefetcher.pfUsefulButMiss            0                       # number of hit on prefetch but cache block is not in an usable state (Count)
system.cache_hierarchy.l2caches.prefetcher.accuracy     0.431818                       # accuracy of the prefetcher (Count)
system.cache_hierarchy.l2caches.prefetcher.coverage     0.035849                       # coverage brought by this prefetcher (Count)
system.cache_hierarchy.l2caches.prefetcher.pfHitInCache            6                       # number of prefetches hitting in cache (Count)
system.cache_hierarchy.l2caches.prefetcher.pfHitInMSHR            7                       # number of prefetches hitting in a MSHR (Count)
system.cache_hierarchy.l2caches.prefetcher.pfHitInWB            0                       # number of prefetches hit in the Write Buffer (Count)
system.cache_hierarchy.l2caches.prefetcher.pfLate           13                       # number of late prefetches (hitting in cache, MSHR or WB) (Count)
system.cache_hierarchy.l2caches.prefetcher.pfIdentified           85                       # number of prefetch candidates identified (Count)
system.cache_hierarchy.l2caches.prefetcher.pfBufferHit           24                       # number of redundant prefetches already in prefetch queue (Count)
system.cache_hierarchy.l2caches.prefetcher.pfInCache            0                       # number of redundant prefetches already in cache/mshr dropped (Count)
system.cache_hierarchy.l2caches.prefetcher.pfRemovedDemand           11                       # number of prefetches dropped due to a demand for the same address (Count)
system.cache_hierarchy.l2caches.prefetcher.pfRemovedFull            0                       # number of prefetches dropped due to prefetch queue size (Count)
system.cache_hierarchy.l2caches.prefetcher.pfSpanPage           15                       # number of prefetches that crossed the page (Count)
system.cache_hierarchy.l2caches.prefetcher.pfUsefulSpanPage            0                       # number of prefetches that is useful and crossed the page (Count)
system.cache_hierarchy.l2caches.prefetcher.power_state.pwrStateResidencyTicks::UNDEFINED     47088000                       # Cumulative time (in ticks) in various power states (Tick)
system.cache_hierarchy.l2caches.tags.tagsInUse   286.275383                       # Average ticks per tags in use ((Tick/Count))
system.cache_hierarchy.l2caches.tags.totalRefs          662                       # Total number of references to valid blocks. (Count)
system.cache_hierarchy.l2caches.tags.sampledRefs          542                       # Sample count of references to valid blocks. (Count)
system.cache_hierarchy.l2caches.tags.avgRefs     1.221402                       # Average number of references to valid blocks. ((Count/Count))
system.cache_hierarchy.l2caches.tags.warmupTick        77000                       # The tick when the warmup percentage was hit. (Tick)
system.cache_hierarchy.l2caches.tags.occupancies::cache_hierarchy.l1dcaches.prefetcher    12.468761                       # Average occupied blocks per tick, per requestor ((Count/Tick))
system.cache_hierarchy.l2caches.tags.occupancies::cache_hierarchy.l2caches.prefetcher    19.894920                       # Average occupied blocks per tick, per requestor ((Count/Tick))
system.cache_hierarchy.l2caches.tags.occupancies::processor.cores.core.inst   169.110181                       # Average occupied blocks per tick, per requestor ((Count/Tick))
system.cache_hierarchy.l2caches.tags.occupancies::processor.cores.core.data    84.801522                       # Average occupied blocks per tick, per requestor ((Count/Tick))
system.cache_hierarchy.l2caches.tags.avgOccs::cache_hierarchy.l1dcaches.prefetcher     0.003044                       # Average percentage of cache occupancy ((Ratio/Tick))
system.cache_hierarchy.l2caches.tags.avgOccs::cache_hierarchy.l2caches.prefetcher     0.004857                       # Average percentage of cache occupancy ((Ratio/Tick))
system.cache_hierarchy.l2caches.tags.avgOccs::processor.cores.core.inst     0.041287                       # Average percentage of cache occupancy ((Ratio/Tick))
system.cache_hierarchy.l2caches.tags.avgOccs::processor.cores.core.data     0.020703                       # Average percentage of cache occupancy ((Ratio/Tick))
system.cache_hierarchy.l2caches.tags.avgOccs::total     0.069891                       # Average percentage of cache occupancy ((Ratio/Tick))
system.cache_hierarchy.l2caches.tags.occupanciesTaskId::1022           50                       # Occupied blocks per task id (Count)
[...]
system.processor.cores.core.commitStats0.numFpInsts          397                       # Number of float instructions (Count)
system.processor.cores.core.commitStats0.numIntInsts        12749                       # Number of integer instructions (Count)
system.processor.cores.core.commitStats0.numLoadInsts         1269                       # Number of load instructions (Count)
system.processor.cores.core.commitStats0.numStoreInsts         1353                       # Number of store instructions (Count)
system.processor.cores.core.commitStats0.numVecInsts            0                       # Number of vector instructions (Count)
system.processor.cores.core.commitStats0.committedInstType::No_OpClass           26      0.20%      0.20% # Class of committed instruction. (Count)
system.processor.cores.core.commitStats0.committedInstType::IntAlu        10089     77.94%     78.14% # Class of committed instruction. (Count)
system.processor.cores.core.commitStats0.committedInstType::IntMult            4      0.03%     78.18% # Class of committed instruction. (Count)
system.processor.cores.core.commitStats0.committedInstType::IntDiv           21      0.16%     78.34% # Class of committed instruction. (Count)
system.processor.cores.core.commitStats0.committedInstType::FloatAdd            2      0.02%     78.35% # Class of committed instruction. (Count)
system.processor.cores.core.commitStats0.committedInstType::FloatCmp            0      0.00%     78.35% # Class of committed instruction. (Count)
system.processor.cores.core.commitStats0.committedInstType::FloatCvt            0      0.00%     78.35% # Class of committed instruction. (Count)
system.processor.cores.core.commitStats0.committedInstType::FloatMult            0      0.00%     78.35% # Class of committed instruction. (Count)
system.processor.cores.core.commitStats0.committedInstType::FloatMultAcc            0      0.00%     78.35% # Class of committed instruction. (Count)
system.processor.cores.core.commitStats0.committedInstType::FloatDiv            0      0.00%     78.35% # Class of committed instruction. (Count)
system.processor.cores.core.commitStats0.committedInstType::FloatMisc            0      0.00%     78.35% # Class of committed instruction. (Count)
system.processor.cores.core.commitStats0.committedInstType::FloatSqrt            0      0.00%     78.35% # Class of committed instruction. (Count)
system.processor.cores.core.commitStats0.committedInstType::SimdAdd            0      0.00%     78.35% # Class of committed instruction. (Count)
system.processor.cores.core.commitStats0.committedInstType::SimdAddAcc            0      0.00%     78.35% # Class of committed instruction. (Count)
system.processor.cores.core.commitStats0.committedInstType::SimdAlu           74      0.57%     78.92% # Class of committed instruction. (Count)
system.processor.cores.core.commitStats0.committedInstType::SimdCmp            0      0.00%     78.92% # Class of committed instruction. (Count)
system.processor.cores.core.commitStats0.committedInstType::SimdCvt           46      0.36%     79.28% # Class of committed instruction. (Count)
system.processor.cores.core.commitStats0.committedInstType::SimdMisc           60      0.46%     79.74% # Class of committed instruction. (Count)
system.processor.cores.core.commitStats0.committedInstType::SimdMult            0      0.00%     79.74% # Class of committed instruction. (Count)
system.processor.cores.core.commitStats0.committedInstType::SimdMultAcc            0      0.00%     79.74% # Class of committed instruction. (Count)
system.processor.cores.core.commitStats0.committedInstType::SimdMatMultAcc            0      0.00%     79.74% # Class of committed instruction. (Count)
system.processor.cores.core.commitStats0.committedInstType::SimdShift            0      0.00%     79.74% # Class of committed instruction. (Count)
system.processor.cores.core.commitStats0.committedInstType::SimdShiftAcc            0      0.00%     79.74% # Class of committed instruction. (Count)
system.processor.cores.core.commitStats0.committedInstType::SimdDiv            0      0.00%     79.74% # Class of committed instruction. (Count)
system.processor.cores.core.commitStats0.committedInstType::SimdSqrt            0      0.00%     79.74% # Class of committed instruction. (Count)
system.processor.cores.core.commitStats0.committedInstType::SimdFloatAdd            0      0.00%     79.74% # Class of committed instruction. (Count)
system.processor.cores.core.commitStats0.committedInstType::SimdFloatAlu            0      0.00%     79.74% # Class of committed instruction. (Count)
system.processor.cores.core.commitStats0.committedInstType::SimdFloatCmp            0      0.00%     79.74% # Class of committed instruction. (Count)
system.processor.cores.core.commitStats0.committedInstType::SimdFloatCvt            0      0.00%     79.74% # Class of committed instruction. (Count)
system.processor.cores.core.commitStats0.committedInstType::SimdFloatDiv            0      0.00%     79.74% # Class of committed instruction. (Count)
system.processor.cores.core.commitStats0.committedInstType::SimdFloatMisc            0      0.00%     79.74% # Class of committed instruction. (Count)
system.processor.cores.core.commitStats0.committedInstType::SimdFloatMult            0      0.00%     79.74% # Class of committed instruction. (Count)
system.processor.cores.core.commitStats0.committedInstType::SimdFloatMultAcc            0      0.00%     79.74% # Class of committed instruction. (Count)
system.processor.cores.core.commitStats0.committedInstType::SimdFloatMatMultAcc            0      0.00%     79.74% # Class of committed instruction. (Count)
system.processor.cores.core.commitStats0.committedInstType::SimdFloatSqrt            0      0.00%     79.74% # Class of committed instruction. (Count)
system.processor.cores.core.commitStats0.committedInstType::SimdReduceAdd            0      0.00%     79.74% # Class of committed instruction. (Count)
system.processor.cores.core.commitStats0.committedInstType::SimdReduceAlu            0      0.00%     79.74% # Class of committed instruction. (Count)
system.processor.cores.core.commitStats0.committedInstType::SimdReduceCmp            0      0.00%     79.74% # Class of committed instruction. (Count)
system.processor.cores.core.commitStats0.committedInstType::SimdFloatReduceAdd            0      0.00%     79.74% # Class of committed instruction. (Count)
system.processor.cores.core.commitStats0.committedInstType::SimdFloatReduceCmp            0      0.00%     79.74% # Class of committed instruction. (Count)
system.processor.cores.core.commitStats0.committedInstType::SimdAes            0      0.00%     79.74% # Class of committed instruction. (Count)
system.processor.cores.core.commitStats0.committedInstType::SimdAesMix            0      0.00%     79.74% # Class of committed instruction. (Count)
system.processor.cores.core.commitStats0.committedInstType::SimdSha1Hash            0      0.00%     79.74% # Class of committed instruction. (Count)
system.processor.cores.core.commitStats0.committedInstType::SimdSha1Hash2            0      0.00%     79.74% # Class of committed instruction. (Count)
system.processor.cores.core.commitStats0.committedInstType::SimdSha256Hash            0      0.00%     79.74% # Class of committed instruction. (Count)
system.processor.cores.core.commitStats0.committedInstType::SimdSha256Hash2            0      0.00%     79.74% # Class of committed instruction. (Count)
system.processor.cores.core.commitStats0.committedInstType::SimdShaSigma2            0      0.00%     79.74% # Class of committed instruction. (Count)
system.processor.cores.core.commitStats0.committedInstType::SimdShaSigma3            0      0.00%     79.74% # Class of committed instruction. (Count)
system.processor.cores.core.commitStats0.committedInstType::SimdPredAlu            0      0.00%     79.74% # Class of committed instruction. (Count)
system.processor.cores.core.commitStats0.committedInstType::Matrix            0      0.00%     79.74% # Class of committed instruction. (Count)
system.processor.cores.core.commitStats0.committedInstType::MatrixMov            0      0.00%     79.74% # Class of committed instruction. (Count)
system.processor.cores.core.commitStats0.committedInstType::MatrixOP            0      0.00%     79.74% # Class of committed instruction. (Count)
system.processor.cores.core.commitStats0.committedInstType::MemRead         1223      9.45%     89.19% # Class of committed instruction. (Count)
system.processor.cores.core.commitStats0.committedInstType::MemWrite         1192      9.21%     98.40% # Class of committed instruction. (Count)
system.processor.cores.core.commitStats0.committedInstType::FloatMemRead           46      0.36%     98.76% # Class of committed instruction. (Count)
system.processor.cores.core.commitStats0.committedInstType::FloatMemWrite          161      1.24%    100.00% # Class of committed instruction. (Count)
system.processor.cores.core.commitStats0.committedInstType::IprAccess            0      0.00%    100.00% # Class of committed instruction. (Count)
system.processor.cores.core.commitStats0.committedInstType::InstPrefetch            0      0.00%    100.00% # Class of committed instruction. (Count)
system.processor.cores.core.commitStats0.committedInstType::VectorUnitStrideLoad            0      0.00%    100.00% # Class of committed instruction. (Count)
system.processor.cores.core.commitStats0.committedInstType::VectorUnitStrideStore            0      0.00%    100.00% # Class of committed instruction. (Count)
system.processor.cores.core.commitStats0.committedInstType::VectorUnitStrideMaskLoad            0      0.00%    100.00% # Class of committed instruction. (Count)
system.processor.cores.core.commitStats0.committedInstType::VectorUnitStrideMaskStore            0      0.00%    100.00% # Class of committed instruction. (Count)
system.processor.cores.core.commitStats0.committedInstType::VectorStridedLoad            0      0.00%    100.00% # Class of committed instruction. (Count)
system.processor.cores.core.commitStats0.committedInstType::VectorStridedStore            0      0.00%    100.00% # Class of committed instruction. (Count)
system.processor.cores.core.commitStats0.committedInstType::VectorIndexedLoad            0      0.00%    100.00% # Class of committed instruction. (Count)
system.processor.cores.core.commitStats0.committedInstType::VectorIndexedStore            0      0.00%    100.00% # Class of committed instruction. (Count)
system.processor.cores.core.commitStats0.committedInstType::VectorUnitStrideFaultOnlyFirstLoad            0      0.00%    100.00% # Class of committed instruction. (Count)
system.processor.cores.core.commitStats0.committedInstType::VectorWholeRegisterLoad            0      0.00%    100.00% # Class of committed instruction. (Count)
system.processor.cores.core.commitStats0.committedInstType::VectorWholeRegisterStore            0      0.00%    100.00% # Class of committed instruction. (Count)
system.processor.cores.core.commitStats0.committedInstType::VectorIntegerArith            0      0.00%    100.00% # Class of committed instruction. (Count)
system.processor.cores.core.commitStats0.committedInstType::VectorFloatArith            0      0.00%    100.00% # Class of committed instruction. (Count)
system.processor.cores.core.commitStats0.committedInstType::VectorFloatConvert            0      0.00%    100.00% # Class of committed instruction. (Count)
system.processor.cores.core.commitStats0.committedInstType::VectorIntegerReduce            0      0.00%    100.00% # Class of committed instruction. (Count)
system.processor.cores.core.commitStats0.committedInstType::VectorFloatReduce            0      0.00%    100.00% # Class of committed instruction. (Count)
system.processor.cores.core.commitStats0.committedInstType::VectorMisc            0      0.00%    100.00% # Class of committed instruction. (Count)
system.processor.cores.core.commitStats0.committedInstType::VectorIntegerExtension            0      0.00%    100.00% # Class of committed instruction. (Count)
system.processor.cores.core.commitStats0.committedInstType::VectorConfig            0      0.00%    100.00% # Class of committed instruction. (Count)
system.processor.cores.core.commitStats0.committedInstType::total        12944                       # Class of committed instruction. (Count)
system.processor.cores.core.commitStats0.committedControl::IsControl         1479                       # Class of control type instructions committed (Count)
system.processor.cores.core.commitStats0.committedControl::IsDirectControl         1297                       # Class of control type instructions committed (Count)
system.processor.cores.core.commitStats0.committedControl::IsIndirectControl          182                       # Class of control type instructions committed (Count)
system.processor.cores.core.commitStats0.committedControl::IsCondControl         1105                       # Class of control type instructions committed (Count)
system.processor.cores.core.commitStats0.committedControl::IsUncondControl          374                       # Class of control type instructions committed (Count)
system.processor.cores.core.commitStats0.committedControl::IsCall          126                       # Class of control type instructions committed (Count)
system.processor.cores.core.commitStats0.committedControl::IsReturn          121                       # Class of control type instructions committed (Count)
system.processor.cores.core.exec_context.thread_0.numMatAluAccesses            0                       # Number of matrix alu accesses (Count)
system.processor.cores.core.exec_context.thread_0.numCallsReturns          247                       # Number of times a function call or return occured (Count)
system.processor.cores.core.exec_context.thread_0.numMatInsts            0                       # Number of matrix instructions (Count)
system.processor.cores.core.exec_context.thread_0.numIdleCycles     0.001000                       # Number of idle cycles (Cycle)
system.processor.cores.core.exec_context.thread_0.numBusyCycles 47087.999000                       # Number of busy cycles (Cycle)
system.processor.cores.core.exec_context.thread_0.notIdleFraction     1.000000                       # Percentage of non-idle cycles (Ratio)
system.processor.cores.core.exec_context.thread_0.idleFraction     0.000000                       # Percentage of idle cycles (Ratio)
system.processor.cores.core.executeStats0.numInsts            0                       # Number of executed instructions (Count)
system.processor.cores.core.executeStats0.numNop            0                       # Number of nop insts executed (Count)
system.processor.cores.core.executeStats0.numBranches            0                       # Number of branches executed (Count)
system.processor.cores.core.executeStats0.numLoadInsts            0                       # Number of load instructions executed (Count)
system.processor.cores.core.executeStats0.numStoreInsts         2622                       # Number of stores executed (Count)
system.processor.cores.core.executeStats0.instRate            0                       # Inst execution rate ((Count/Cycle))
system.processor.cores.core.executeStats0.numFpAluAccesses          397                       # Number of float alu accesses (Count)
system.processor.cores.core.executeStats0.numFpRegReads          539                       # Number of times the floating registers were read (Count)
system.processor.cores.core.executeStats0.numFpRegWrites          190                       # Number of times the floating registers were written (Count)
system.processor.cores.core.executeStats0.numIntAluAccesses        12749                       # Number of integer alu accesses (Count)
system.processor.cores.core.executeStats0.numIntRegReads        16002                       # Number of times the integer registers were read (Count)
system.processor.cores.core.executeStats0.numIntRegWrites         8841                       # Number of times the integer registers were written (Count)
system.processor.cores.core.executeStats0.numMemRefs         2622                       # Number of memory refs (Count)
system.processor.cores.core.executeStats0.numMiscRegReads         5687                       # Number of times the Misc registers were read (Count)
system.processor.cores.core.executeStats0.numVecAluAccesses            0                       # Number of vector alu accesses (Count)
system.processor.cores.core.executeStats0.numDiscardedOps            0                       # Number of ops (including micro ops) which were discarded before commit (Count)
system.processor.cores.core.fetchStats0.numInsts         6552                       # Number of instructions fetched (thread level) (Count)
system.processor.cores.core.fetchStats0.numOps        12944                       # Number of ops (including micro ops) fetched (thread level) (Count)
system.processor.cores.core.fetchStats0.fetchRate     0.139144                       # Number of inst fetches per cycle ((Count/Cycle))
system.processor.cores.core.fetchStats0.numBranches         1479                       # Number of branches fetched (Count)
system.processor.cores.core.fetchStats0.branchRate     0.031409                       # Number of branch fetches per cycle (Ratio)
system.processor.cores.core.fetchStats0.numFetchSuspends            0                       # Number of times Execute suspended instruction fetching (Count)
system.processor.cores.core.interrupts.clk_domain.clock        16000                       # Clock period in ticks (Tick)
system.processor.cores.core.mmu.dtb.rdAccesses         1272                       # TLB accesses on read requests (Count)
system.processor.cores.core.mmu.dtb.wrAccesses         1353                       # TLB accesses on write requests (Count)
system.processor.cores.core.mmu.dtb.rdMisses           11                       # TLB misses on read requests (Count)
system.processor.cores.core.mmu.dtb.wrMisses           11                       # TLB misses on write requests (Count)
system.processor.cores.core.mmu.dtb.walker.power_state.pwrStateResidencyTicks::UNDEFINED     47088000                       # Cumulative time (in ticks) in various power states (Tick)
system.processor.cores.core.mmu.itb.rdAccesses            0                       # TLB accesses on read requests (Count)
system.processor.cores.core.mmu.itb.wrAccesses         8546                       # TLB accesses on write requests (Count)
system.processor.cores.core.mmu.itb.rdMisses            0                       # TLB misses on read requests (Count)
system.processor.cores.core.mmu.itb.wrMisses           39                       # TLB misses on write requests (Count)
system.processor.cores.core.mmu.itb.walker.power_state.pwrStateResidencyTicks::UNDEFINED     47088000                       # Cumulative time (in ticks) in various power states (Tick)
system.processor.cores.core.power_state.pwrStateResidencyTicks::ON     47088000                       # Cumulative time (in ticks) in various power states (Tick)
system.processor.cores.core.thread_0.numInsts            0                       # Number of Instructions committed (Count)
system.processor.cores.core.thread_0.numOps            0                       # Number of Ops committed (Count)
system.processor.cores.core.thread_0.numMemRefs            0                       # Number of Memory References (Count)
system.processor.cores.core.workload.numSyscalls           11                       # Number of system calls (Count)
system.workload.inst.arm                            0                       # number of arm instructions executed (Count)
system.workload.inst.quiesce                        0                       # number of quiesce instructions executed (Count)

---------- End Simulation Statistics   ----------
